file 114921215 1751898791                                       
version 2
run VoIP-UL-0-20250707-11:23:09-1434171
attr configname VoIP-UL
attr datetime 20250707-11:23:09
attr datetimef 20250707-112309
attr experiment VoIP-UL
attr inifile omnetpp.ini
attr iterationvars ""
attr iterationvarsd ""
attr iterationvarsf ""
attr measurement ""
attr network Highway5G
attr processid 1434171
attr repetition 0
attr replication #0
attr resultdir results
attr runnumber 0
attr seedset 0
config image-path ../../../../../../../OMNET/omnetpp-6.0.3/workspaces/inet4.5/images:../../../../../../../OMNET/omnetpp-6.0.3/workspaces/simu5g/images:../../../../../../../Dev/veins_new/images
config *.server.numApps 45
config *.server.app[*].typename VoIPReceiver
config *.server.app[*].localPort "3000 + ancestorIndex(0)"
config *.car[*].numApps 1
config *.car[*].app[0].typename VoIPSender
config *.car[*].app[0].destAddress "\"server\""
config *.car[*].app[0].destPort "3000 + ancestorIndex(1)"
config cmdenv-express-mode true
config cmdenv-autoflush true
config image-path ../../images
config network Highway5G
config debug-on-errors false
config print-undisposed false
config sim-time-limit 60s
config **.sctp.**.scalar-recording true
config **.sctp.**.vector-recording true
config **.routingRecorder.enabled false
config *.veinsManager.host "\"localhost\""
config *.veinsManager.port 9999
config *.veinsManager.moduleType "\"simu5g.nodes.cars.NRCar\""
config *.veinsManager.moduleName "\"car\""
config *.veinsManager.launchConfig "xmldoc(\"cenarioC.launchd.xml\")"
config *.veinsManager.updateInterval 0.5s
config *.configurator.addStaticRoutes true
config *.configurator.assignDisjunctSubnetAddresses true
config *.configurator.networkConfiguratorModule "\"IPv4NetworkConfigurator\""
config *.configurator.config "xmldoc(\"demo.xml\")"
config *.configurator.interfaceFilter "\"*\""
config *.physicalEnvironment.config "xmldoc(\"obstaclesC.xml\")"
config *.radioMedium.obstacleLoss.typename IdealObstacleLoss
config *.car[*].mobility.typename projectpredicthandover.veins_inet.VeinsInetMobility
config **.mobility.constraintAreaMaxX 3000m
config **.mobility.constraintAreaMinX 0m
config **.mobility.constraintAreaMaxY 3000m
config **.mobility.constraintAreaMinY 0m
config **.mobility.constraintAreaMinZ 0m
config **.mobility.constraintAreaMaxZ 10m
config *.gNodeB1.mobility.initialX 2425.22m
config *.gNodeB1.mobility.initialY 1342.01m
config *.gNodeB1.mobility.initialZ 0m
config *.gNodeB1.mobility.constraintAreaMinX 2425.22m
config *.gNodeB1.mobility.constraintAreaMaxX 2425.22m
config *.gNodeB1.mobility.constraintAreaMinY 1342.01m
config *.gNodeB1.mobility.constraintAreaMaxY 1342.01m
config *.gNodeB1.mobility.constraintAreaMinZ 0m
config *.gNodeB1.mobility.constraintAreaMaxZ 0m
config *.gNodeB2.mobility.initialX 1600m
config *.gNodeB2.mobility.initialY 800m
config *.gNodeB2.mobility.initialZ 0m
config *.gNodeB2.mobility.constraintAreaMinX 1600m
config *.gNodeB2.mobility.constraintAreaMaxX 1600m
config *.gNodeB2.mobility.constraintAreaMinY 800m
config *.gNodeB2.mobility.constraintAreaMaxY 800m
config *.gNodeB2.mobility.constraintAreaMinZ 0m
config *.gNodeB2.mobility.constraintAreaMaxZ 0m
config *.gNodeB3.mobility.initialX 1900m
config *.gNodeB3.mobility.initialY 1100m
config *.gNodeB3.mobility.initialZ 0m
config *.gNodeB3.mobility.constraintAreaMinX 1900m
config *.gNodeB3.mobility.constraintAreaMaxX 1900m
config *.gNodeB3.mobility.constraintAreaMinY 1100m
config *.gNodeB3.mobility.constraintAreaMaxY 1100m
config *.gNodeB3.mobility.constraintAreaMinZ 0m
config *.gNodeB3.mobility.constraintAreaMaxZ 0m
config *.gNodeB4.mobility.initialX 2100m
config *.gNodeB4.mobility.initialY 500m
config *.gNodeB4.mobility.initialZ 0m
config *.gNodeB4.mobility.constraintAreaMinX 2100m
config *.gNodeB4.mobility.constraintAreaMaxX 2100m
config *.gNodeB4.mobility.constraintAreaMinY 500m
config *.gNodeB4.mobility.constraintAreaMaxY 500m
config *.gNodeB4.mobility.constraintAreaMinZ 0m
config *.gNodeB4.mobility.constraintAreaMaxZ 0m
config **.numBands 25
config **.ueTxPower 20
config **.eNodeBTxPower 40
config *.car[*].cellularNic.nrPhy.dynamicCellAssociation true
config *.car[*].masterId 0
config *.car[*].macCellId 0
config *.car[*].nrMasterId 1
config *.car[*].nrMacCellId 1
config *.car[*].cellularNic.nrPhy.handoverThreshold -4
config **.gNodeB1.macCellId 1
config **.gNodeB1.macNodeId 1
config **.gNodeB2.macCellId 2
config **.gNodeB2.macNodeId 2
config **.gNodeB3.macCellId 3
config **.gNodeB3.macNodeId 3
config **.gNodeB4.macCellId 4
config **.gNodeB4.macNodeId 4
config *.car[*].cellularNic.nrMac.dynamicCellAssociation true
config *.car[*].cellularNic.nrMac.enableHandover true
config *.car[*].cellularNic.nrPhy.enableHandover true
config *.gNodeB*.cellularNic.phy.enableHandover true
config *.gNodeB*.cellularNic.nrMac.enableHandover true
config *.gNodeB*.cellularNic.phy.handoverLatency 5ms
config *.gNodeB*.cellularNic.nrMac.handoverLatency 5ms
config *.gNodeB*.cellInfo.broadcastMessageInterval 1s
config *.gNodeB*.x2App[*].server.localPort "5000 + ancestorIndex(1)"
config *.gNodeB*.numX2Apps 2
config *.gNodeB1.x2App[0].client.connectAddress "\"gNodeB2%x2ppp0\""
config *.gNodeB1.x2App[1].client.connectAddress "\"gNodeB3%x2ppp0\""
config *.gNodeB2.x2App[0].client.connectAddress "\"gNodeB1%x2ppp0\""
config *.gNodeB2.x2App[1].client.connectAddress "\"gNodeB4%x2ppp0\""
config *.gNodeB3.x2App[0].client.connectAddress "\"gNodeB1%x2ppp0\""
config *.gNodeB3.x2App[1].client.connectAddress "\"gNodeB4%x2ppp0\""
config *.gNodeB4.x2App[0].client.connectAddress "\"gNodeB3%x2ppp0\""
config *.gNodeB4.x2App[1].client.connectAddress "\"gNodeB2%x2ppp0\""
config **.sctp.nagleEnabled false
config **.sctp.enableHeartbeats false
config *.visualizer.*.obstacleLossVisualizer.displayIntersections true
config *.visualizer.*.obstacleLossVisualizer.displayFaceNormalVectors true
config *.visualizer.*.obstacleLossVisualizer.intersectionLineColor "\"yellow\""
config *.visualizer.*.mediumVisualizer.signalPropagationAnimationSpeed 500/3e8
config *.visualizer.*.mediumVisualizer.signalTransmissionAnimationSpeed 50000/3e8
config *.visualizer.*.mediumVisualizer.displaySignals true
config *.visualizer.canvasVisualizer.mediumVisualizer.displaySignalDepartures false
config *.visualizer.canvasVisualizer.mediumVisualizer.displaySignalArrivals false
config *.visualizer.*.physicalLinkVisualizer.displayLinks true
config **.scalar-recording true
config **.vector-recording true
config **.mobility.tracemobility true
config **.car[*].mobility.posX.vector-recording true
config **.car[*].mobility.posY.vector-recording true
config **.car[*].mobility.posZ.vector-recording true
config **.car[*].mobility.speed.vector-recording true
config **.car[*].mobility.lastPosition.vector-recording true
config **.car[*].app[*].voIPGeneratedThroughput.vector-recording true
config **.car[*].cellularNic.nrPhy.servingCell.vector-recording true
config **.car[*].cellularNic.nrMac.macDelayDL.vector-recording true
config **.car[*].cellularNic.nrMac.macDelayUL.vector-recording true
config **.car[*].cellularNic.nrMac.macThroughputDL.vector-recording true
config **.car[*].cellularNic.nrMac.macThroughputUL.vector-recording true
config **.car[*].cellularNic.nrMac.macCellPacketLossDL.vector-recording true
config **.car[*].cellularNic.nrMac.macCellPacketLossUL.vector-recording true
config **.car[*].cellularNic.nrMac.macBufferOverflowDL.vector-recording true
config **.car[*].cellularNic.nrMac.macBufferOverflowUL.vector-recording true
config **.car[*].cellularNic.nrMac.harqErrorRateDL.vector-recording true
config **.car[*].cellularNic.nrMac.harqErrorRateUL.vector-recording true
config **.car[*].cellularNic.nrMac.harqTxAttemptsDL.vector-recording true
config **.car[*].cellularNic.nrMac.harqTxAttemptsUL.vector-recording true
config **.car[*].cellularNic.nrMac.receivedPacketFromUpperLayer.vector-recording true
config **.car[*].cellularNic.nrMac.receivedPacketFromLowerLayer.vector-recording true
config **.car[*].cellularNic.nrMac.sentPacketToUpperLayer.vector-recording true
config **.car[*].cellularNic.nrMac.sentPacketToLowerLayer.vector-recording true
config **.car[*].cellularNic.nrMac.measuredItbs.vector-recording true
config **.car[*].cellularNic.nrMac.macDelayD2D.vector-recording true
config **.car[*].cellularNic.nrMac.macThroughputD2D.vector-recording true
config **.car[*].cellularNic.nrMac.rcvdD2DModeSwitchNotification.vector-recording true
config **.car[*].cellularNic.nrPhy.averageCqiDL.vector-recording true
config **.car[*].cellularNic.nrPhy.averageCqiUL.vector-recording true

vector 0 Highway5G.server.ppp[0].queue queueLength:vector ETV
attr autoWarmupFilter false
attr interpolationmode sample-hold
attr recordingmode vector
attr source "warmup(atomic(constant0(packetPushEnded) + count(packetPushStarted) - count(packetPulled) - count(packetRemoved) - count(packetDropped)))"
attr title "queue length"
attr unit pk
0	180596 40 0 0 0 0 5 0 0 0 0
vector 1 Highway5G.server.ppp[0].queue queueBitLength:vector ETV
attr autoWarmupFilter false
attr interpolationmode sample-hold
attr recordingmode vector
attr source "warmup(atomic(constant0(packetPushEnded) + sum(packetLength(packetPushStarted)) - sum(packetLength(packetPulled)) - sum(packetLength(packetRemoved)) - sum(packetLength(packetDropped))))"
attr title "queue bit length"
attr unit b
1	180636 40 0 0 0 0 5 0 0 0 0
vector 2 Highway5G.server.ppp[0].ppp transmissionState:vector ETV
attr interpolationmode sample-hold
attr recordingmode vector
attr source transmissionStateChanged
attr title "tx state"
2	180676 8 0 0 0 0 1 0 0 0 0
vector 3 Highway5G.server.udp passedUpPk:vector(count) ETV
attr interpolationmode none
attr recordingmode vector(count)
attr source packetSentToUpper
attr title "packets passed up, count"
3	180684 105752 0 650954 0 18.8790003588 3888 0 3887 7556328 19583483400
3	12609222 138389 651030 1343205 18.8800003588 27.7300003588 4858 3888 8745 30685557 203379453445
3	25907144 143676 1343568 2040641 27.7340003588 34.4400003588 4831 8746 13576 53918791 611183341631
3	39649277 146473 2041059 2738039 34.4440003588 40.3630003588 4884 13577 18460 78234354 1262905355734
3	53502604 145385 2738210 3447468 40.3640003588 45.6120003588 4847 18461 23307 101224748 2123467016280
3	67395522 146250 3447473 4178477 45.6120004476 50.3400004476 4875 23308 28182 125506875 3240829281625
3	81276019 147060 4178665 4905829 50.3410003588 54.7350004476 4902 28183 33084 150165417 4609908394495
3	95195967 149410 4906032 5610220 54.7360003588 58.5750004788 4981 33085 38065 177199075 6314155460055
3	109151753 57795 5610488 5880426 58.5760003588 59.9970003588 1927 38066 39992 75208883 2935923793195
vector 4 Highway5G.server.udp droppedPkWrongPort:vector(count) ETV
attr interpolationmode none
attr recordingmode vector(count)
attr source packetDropReasonIsNoPortFound(packetDropped)
attr title "packets dropped (wrong port), count"
4	286436 8 0 0 0 0 1 0 0 0 0
vector 5 Highway5G.server.udp droppedPkBadChecksum:vector(count) ETV
attr interpolationmode none
attr recordingmode vector(count)
attr source packetDropReasonIsIncorrectlyReceived(packetDropped)
attr title "packets dropped (checksum error), count"
5	286444 8 0 0 0 0 1 0 0 0 0
vector 6 Highway5G.router.ppp[0].queue queueLength:vector ETV
attr autoWarmupFilter false
attr interpolationmode sample-hold
attr recordingmode vector
attr source "warmup(atomic(constant0(packetPushEnded) + count(packetPushStarted) - count(packetPulled) - count(packetRemoved) - count(packetDropped)))"
attr title "queue length"
attr unit pk
6	286452 95230 0 650950 0 18.8790002488 3892 0 0 0 0
6	12747611 123815 651026 1343201 18.8800002488 27.7300002488 4858 0 0 0 0
6	26050820 125606 1343553 2040637 27.7340002488 34.4400002488 4831 0 0 0 0
6	39795750 126963 2041055 2738202 34.4440002488 40.3640002488 4885 0 0 0 0
6	53647989 125997 2738207 3447465 40.3640003376 45.6120003376 4847 0 0 0 0
6	67541772 126724 3447609 4178469 45.6130002488 50.3400003376 4874 0 0 0 0
6	81423079 127452 4178656 4905821 50.3410002488 54.7350003376 4902 0 0 0 0
6	95345377 129512 4906028 5610479 54.7360002488 58.5760002488 4982 0 0 0 0
6	109209548 50061 5610484 5880422 58.5760003088 59.9970002488 1926 0 0 0 0
vector 7 Highway5G.router.ppp[0].queue queueBitLength:vector ETV
attr autoWarmupFilter false
attr interpolationmode sample-hold
attr recordingmode vector
attr source "warmup(atomic(constant0(packetPushEnded) + sum(packetLength(packetPushStarted)) - sum(packetLength(packetPulled)) - sum(packetLength(packetRemoved)) - sum(packetLength(packetDropped))))"
attr title "queue bit length"
attr unit b
7	381682 95230 0 650950 0 18.8790002488 3892 0 0 0 0
7	12871426 123815 651026 1343201 18.8800002488 27.7300002488 4858 0 0 0 0
7	26176426 125606 1343553 2040637 27.7340002488 34.4400002488 4831 0 0 0 0
7	39922713 126963 2041055 2738202 34.4440002488 40.3640002488 4885 0 0 0 0
7	53773986 125997 2738207 3447465 40.3640003376 45.6120003376 4847 0 0 0 0
7	67668496 126724 3447609 4178469 45.6130002488 50.3400003376 4874 0 0 0 0
7	81550531 127452 4178656 4905821 50.3410002488 54.7350003376 4902 0 0 0 0
7	95474889 129512 4906028 5610479 54.7360002488 58.5760002488 4982 0 0 0 0
7	109259609 50061 5610484 5880422 58.5760003088 59.9970002488 1926 0 0 0 0
vector 8 Highway5G.router.ppp[0].ppp transmissionState:vector ETV
attr interpolationmode sample-hold
attr recordingmode vector
attr source transmissionStateChanged
attr title "tx state"
8	476912 190388 0 650951 0 18.8790003088 7775 0 1 3887 3887
8	12995241 247630 651026 1343202 18.8800002488 27.7300003088 9716 0 1 4858 4858
8	26302032 251212 1343553 2040638 27.7340002488 34.4400003088 9662 0 1 4831 4831
8	40049676 253926 2041055 2738204 34.4440002488 40.3640003088 9770 0 1 4885 4885
8	53899983 251968 2738207 3447465 40.3640003376 45.6120003376 9693 0 1 4847 4847
8	67795220 253474 3447470 4178474 45.6120003976 50.3400003976 9749 0 1 4874 4874
8	81677983 254904 4178656 4905826 50.3410002488 54.7350003976 9804 0 1 4902 4902
8	95604401 259024 4906028 5610482 54.7360002488 58.5760003088 9964 0 1 4982 4982
8	109309670 100122 5610484 5880423 58.5760003088 59.9970003088 3852 0 1 1926 1926
vector 9 Highway5G.router.ppp[1].queue queueLength:vector ETV
attr autoWarmupFilter false
attr interpolationmode sample-hold
attr recordingmode vector
attr source "warmup(atomic(constant0(packetPushEnded) + count(packetPushStarted) - count(packetPulled) - count(packetRemoved) - count(packetDropped)))"
attr title "queue length"
attr unit pk
9	667300 40 0 0 0 0 5 0 0 0 0
vector 10 Highway5G.router.ppp[1].queue queueBitLength:vector ETV
attr autoWarmupFilter false
attr interpolationmode sample-hold
attr recordingmode vector
attr source "warmup(atomic(constant0(packetPushEnded) + sum(packetLength(packetPushStarted)) - sum(packetLength(packetPulled)) - sum(packetLength(packetRemoved)) - sum(packetLength(packetDropped))))"
attr title "queue bit length"
attr unit b
10	667340 45 0 0 0 0 5 0 0 0 0
vector 11 Highway5G.router.ppp[1].ppp transmissionState:vector ETV
attr interpolationmode sample-hold
attr recordingmode vector
attr source transmissionStateChanged
attr title "tx state"
11	667385 9 0 0 0 0 1 0 0 0 0
vector 12 Highway5G.upf.ppp[0].queue queueLength:vector ETV
attr autoWarmupFilter false
attr interpolationmode sample-hold
attr recordingmode vector
attr source "warmup(atomic(constant0(packetPushEnded) + count(packetPushStarted) - count(packetPulled) - count(packetRemoved) - count(packetDropped)))"
attr title "queue length"
attr unit pk
12	667394 45 0 0 0 0 5 0 0 0 0
vector 13 Highway5G.upf.ppp[0].queue queueBitLength:vector ETV
attr autoWarmupFilter false
attr interpolationmode sample-hold
attr recordingmode vector
attr source "warmup(atomic(constant0(packetPushEnded) + sum(packetLength(packetPushStarted)) - sum(packetLength(packetPulled)) - sum(packetLength(packetRemoved)) - sum(packetLength(packetDropped))))"
attr title "queue bit length"
attr unit b
13	667439 45 0 0 0 0 5 0 0 0 0
vector 14 Highway5G.upf.ppp[0].ppp transmissionState:vector ETV
attr interpolationmode sample-hold
attr recordingmode vector
attr source transmissionStateChanged
attr title "tx state"
14	667484 9 0 0 0 0 1 0 0 0 0
vector 15 Highway5G.upf.ppp[1].queue queueLength:vector ETV
attr autoWarmupFilter false
attr interpolationmode sample-hold
attr recordingmode vector
attr source "warmup(atomic(constant0(packetPushEnded) + count(packetPushStarted) - count(packetPulled) - count(packetRemoved) - count(packetDropped)))"
attr title "queue length"
attr unit pk
15	667493 45 0 0 0 0 5 0 0 0 0
vector 16 Highway5G.upf.ppp[1].queue queueBitLength:vector ETV
attr autoWarmupFilter false
attr interpolationmode sample-hold
attr recordingmode vector
attr source "warmup(atomic(constant0(packetPushEnded) + sum(packetLength(packetPushStarted)) - sum(packetLength(packetPulled)) - sum(packetLength(packetRemoved)) - sum(packetLength(packetDropped))))"
attr title "queue bit length"
attr unit b
16	667538 45 0 0 0 0 5 0 0 0 0
vector 17 Highway5G.upf.ppp[1].ppp transmissionState:vector ETV
attr interpolationmode sample-hold
attr recordingmode vector
attr source transmissionStateChanged
attr title "tx state"
17	667583 9 0 0 0 0 1 0 0 0 0
vector 18 Highway5G.upf.ppp[2].queue queueLength:vector ETV
attr autoWarmupFilter false
attr interpolationmode sample-hold
attr recordingmode vector
attr source "warmup(atomic(constant0(packetPushEnded) + count(packetPushStarted) - count(packetPulled) - count(packetRemoved) - count(packetDropped)))"
attr title "queue length"
attr unit pk
18	667592 45 0 0 0 0 5 0 0 0 0
vector 19 Highway5G.upf.ppp[2].queue queueBitLength:vector ETV
attr autoWarmupFilter false
attr interpolationmode sample-hold
attr recordingmode vector
attr source "warmup(atomic(constant0(packetPushEnded) + sum(packetLength(packetPushStarted)) - sum(packetLength(packetPulled)) - sum(packetLength(packetRemoved)) - sum(packetLength(packetDropped))))"
attr title "queue bit length"
attr unit b
19	667637 45 0 0 0 0 5 0 0 0 0
vector 20 Highway5G.upf.ppp[2].ppp transmissionState:vector ETV
attr interpolationmode sample-hold
attr recordingmode vector
attr source transmissionStateChanged
attr title "tx state"
20	667682 9 0 0 0 0 1 0 0 0 0
vector 21 Highway5G.upf.ppp[3].queue queueLength:vector ETV
attr autoWarmupFilter false
attr interpolationmode sample-hold
attr recordingmode vector
attr source "warmup(atomic(constant0(packetPushEnded) + count(packetPushStarted) - count(packetPulled) - count(packetRemoved) - count(packetDropped)))"
attr title "queue length"
attr unit pk
21	667691 45 0 0 0 0 5 0 0 0 0
vector 22 Highway5G.upf.ppp[3].queue queueBitLength:vector ETV
attr autoWarmupFilter false
attr interpolationmode sample-hold
attr recordingmode vector
attr source "warmup(atomic(constant0(packetPushEnded) + sum(packetLength(packetPushStarted)) - sum(packetLength(packetPulled)) - sum(packetLength(packetRemoved)) - sum(packetLength(packetDropped))))"
attr title "queue bit length"
attr unit b
22	667736 45 0 0 0 0 5 0 0 0 0
vector 23 Highway5G.upf.ppp[3].ppp transmissionState:vector ETV
attr interpolationmode sample-hold
attr recordingmode vector
attr source transmissionStateChanged
attr title "tx state"
23	667781 9 0 0 0 0 1 0 0 0 0
vector 24 Highway5G.upf.pppIf.queue queueLength:vector ETV
attr autoWarmupFilter false
attr interpolationmode sample-hold
attr recordingmode vector
attr source "warmup(atomic(constant0(packetPushEnded) + count(packetPushStarted) - count(packetPulled) - count(packetRemoved) - count(packetDropped)))"
attr title "queue length"
attr unit pk
24	667790 102752 0 650946 0 18.8790001388 4033 0 1 141 141
24	13242871 145606 651022 1343197 18.8800001388 27.7300001388 5487 0 2 743 857
24	26553244 156276 1343536 2040633 27.7340001388 34.4400001388 5788 0 2 1231 1505
24	40303602 150667 2041051 2738199 34.4440001388 40.3640002276 5582 0 2 732 768
24	54151951 147395 2738364 3447457 40.3650001388 45.6120002276 5460 0 2 726 838
24	68048694 156168 3447605 4178461 45.6130001388 50.3400002276 5784 0 2 976 1042
24	81932887 160218 4178645 4905813 50.3410001388 54.7350002276 5934 0 2 1056 1080
24	95863425 157174 4906024 5610480 54.7360001388 58.5760002588 5822 0 3 892 954
24	109409792 65082 5610837 5880418 58.5780001388 59.9970001388 2411 0 3 791 1231
vector 25 Highway5G.upf.pppIf.queue queueBitLength:vector ETV
attr autoWarmupFilter false
attr interpolationmode sample-hold
attr recordingmode vector
attr source "warmup(atomic(constant0(packetPushEnded) + sum(packetLength(packetPushStarted)) - sum(packetLength(packetPulled)) - sum(packetLength(packetRemoved)) - sum(packetLength(packetDropped))))"
attr title "queue bit length"
attr unit b
25	770542 103034 0 650946 0 18.8790001388 4033 0 544 76704 41726976
25	13388477 147035 651022 1343197 18.8800001388 27.7300001388 5487 0 1088 404192 253617152
25	26709520 158601 1343536 2040633 27.7340001388 34.4400001388 5788 0 1088 669664 445383680
25	40454269 152113 2041051 2738199 34.4440001388 40.3640002276 5582 0 1088 398208 227278848
25	54299346 148791 2738364 3447457 40.3650001388 45.6120002276 5460 0 1088 394944 247994368
25	68204862 158087 3447605 4178461 45.6130001388 50.3400002276 5784 0 1088 530944 308365312
25	82093105 162318 4178645 4905813 50.3410001388 54.7350002276 5934 0 1088 574464 319610880
25	96020599 158927 4906024 5610480 54.7360001388 58.5760002588 5822 0 1632 485248 282322944
25	109474874 66444 5610837 5880418 58.5780001388 59.9970001388 2411 0 1632 430304 364297216
vector 26 Highway5G.upf.pppIf.ppp transmissionState:vector ETV
attr interpolationmode sample-hold
attr recordingmode vector
attr source transmissionStateChanged
attr title "tx state"
26	873576 198163 0 650947 0 18.8790001988 7775 0 1 3887 3887
26	13535512 257346 651022 1343198 18.8800001388 27.7300001988 9716 0 1 4858 4858
26	26868121 260874 1343536 2040634 27.7340001388 34.4400001988 9662 0 1 4831 4831
26	40606382 263750 2041051 2738203 34.4440001388 40.3640002876 9772 0 1 4886 4886
26	54448137 261634 2738364 3447461 40.3650001388 45.6120002876 9692 0 1 4846 4846
26	68362949 263196 3447605 4178465 45.6130001388 50.3400002876 9748 0 1 4874 4874
26	82255423 264708 4178645 4905817 50.3410001388 54.7350002876 9804 0 1 4902 4902
26	96179526 269069 4906024 5610480 54.7360001388 58.5760002588 9967 0 1 4984 4984
26	109541318 103893 5610485 5880419 58.5760003188 59.9970001988 3849 0 1 1924 1924
vector 27 Highway5G.upf.udp passedUpPk:vector(count) ETV
attr interpolationmode none
attr recordingmode vector(count)
attr source packetSentToUpper
attr title "packets passed up, count"
27	1071739 109640 0 650944 0 18.8790001388 3888 0 3887 7556328 19583483400
27	13792858 143247 651020 1343195 18.8800001388 27.7300001388 4858 3888 8745 30685557 203379453445
27	27128995 148507 1343532 2040631 27.7340001388 34.4400001388 4831 8746 13576 53918791 611183341631
27	40870132 151419 2041049 2738197 34.4440001388 40.3640002276 4886 13577 18462 78271277 1263587009699
27	54709771 150201 2738362 3447455 40.3650001388 45.6120002276 4846 18463 23308 101211133 2123328625179
27	68626145 151094 3447603 4178459 45.6130001388 50.3400002276 4874 23309 28182 125483567 3240286018761
27	82520131 151962 4178641 4905811 50.3410001388 54.7350002276 4902 28183 33084 150165417 4609908394495
27	96448595 154484 4906022 5610469 54.7360001388 58.5760001388 4984 33085 38068 177313276 6318502749524
27	109645211 59629 5610835 5880416 58.5780001388 59.9970001388 1924 38069 39992 75094682 2931576503726
vector 28 Highway5G.upf.udp droppedPkWrongPort:vector(count) ETV
attr interpolationmode none
attr recordingmode vector(count)
attr source packetDropReasonIsNoPortFound(packetDropped)
attr title "packets dropped (wrong port), count"
28	1181379 9 0 0 0 0 1 0 0 0 0
vector 29 Highway5G.upf.udp droppedPkBadChecksum:vector(count) ETV
attr interpolationmode none
attr recordingmode vector(count)
attr source packetDropReasonIsIncorrectlyReceived(packetDropped)
attr title "packets dropped (checksum error), count"
29	1181388 9 0 0 0 0 1 0 0 0 0
vector 30 Highway5G.gNodeB1.pppIf.queue queueLength:vector ETV
attr autoWarmupFilter false
attr interpolationmode sample-hold
attr recordingmode vector
attr source "warmup(atomic(constant0(packetPushEnded) + count(packetPushStarted) - count(packetPulled) - count(packetRemoved) - count(packetDropped)))"
attr title "queue length"
attr unit pk
30	1181397 292 0 643334 0 18.748 18 0 0 0 0
30	13936105 15115 733466 1341858 20.295 27.717 776 0 2 8 12
30	27277502 11907 1343850 2041002 27.737 34.444 584 0 2 47 51
30	41021551 8559 2042166 2737089 34.454 40.356 422 0 1 17 17
30	54859972 7305 2738739 3447078 40.368 45.61 374 0 2 4 6
30	68777239 10968 3449249 4177380 45.624 50.334 546 0 2 23 25
30	82672093 14377 4180493 4905147 50.353 54.732 723 0 1 1 1
30	96603079 8528 4906678 5610369 54.74 58.576 422 0 2 31 33
30	109704840 8231 5611150 5880116 58.58 59.996 401 0 1 47 47
vector 31 Highway5G.gNodeB1.pppIf.queue queueBitLength:vector ETV
attr autoWarmupFilter false
attr interpolationmode sample-hold
attr recordingmode vector
attr source "warmup(atomic(constant0(packetPushEnded) + sum(packetLength(packetPushStarted)) - sum(packetLength(packetPulled)) - sum(packetLength(packetRemoved)) - sum(packetLength(packetDropped))))"
attr title "queue bit length"
attr unit b
31	1181689 292 0 643334 0 18.748 18 0 0 0 0
31	13951220 15129 733466 1341858 20.295 27.717 776 0 1664 6656 8306688
31	27289409 11999 1343850 2041002 27.737 34.444 584 0 1664 39104 35303424
31	41030110 8593 2042166 2737089 34.454 40.356 422 0 832 14144 11767808
31	54867277 7312 2738739 3447078 40.368 45.61 374 0 1664 3328 4153344
31	68788207 11013 3449249 4177380 45.624 50.334 546 0 1664 19136 17305600
31	82686470 14379 4180493 4905147 50.353 54.732 723 0 832 832 692224
31	96611607 8589 4906678 5610369 54.74 58.576 422 0 1664 25792 22843392
31	109713071 8325 5611150 5880116 58.58 59.996 401 0 832 39104 32534528
vector 32 Highway5G.gNodeB1.pppIf.ppp transmissionState:vector ETV
attr interpolationmode sample-hold
attr recordingmode vector
attr source transmissionStateChanged
attr title "tx state"
32	1181981 594 0 643356 0 18.7480000888 27 0 1 13 13
32	13966349 35503 733466 1341877 20.295 27.7170000888 1544 0 1 772 772
32	27301408 25631 1343850 2041002 27.737 34.444 1081 0 1 541 541
32	41038703 19181 2041046 2737132 34.4440000888 40.3560000888 811 0 1 405 405
32	54874589 17311 2738739 3447140 40.368 45.6100000888 744 0 1 372 372
32	68799220 24725 3449249 4177440 45.624 50.3340000888 1050 0 1 525 525
32	82700849 33851 4180493 4905209 50.353 54.7320000888 1444 0 1 722 722
32	96620196 18563 4906678 5610458 54.74 58.5760000888 786 0 1 393 393
32	109721396 16908 5611150 5880195 58.58 59.9960000888 708 0 1 354 354
vector 33 Highway5G.gNodeB1.x2ppp[0].queue queueLength:vector ETV
attr autoWarmupFilter false
attr interpolationmode sample-hold
attr recordingmode vector
attr source "warmup(atomic(constant0(packetPushEnded) + count(packetPushStarted) - count(packetPulled) - count(packetRemoved) - count(packetDropped)))"
attr title "queue length"
attr unit pk
33	1182575 147 0 109069 0 6.0500101068 10 0 0 0 0
33	54891900 22 3214587 3214587 44.05001 44.05001 1 0 0 0 0
33	68823945 71 3505124 3798923 46.00001 48.05001 3 0 0 0 0
33	82734700 54 4465920 4807897 52.2000101068 54.2000101068 2 0 0 0 0
vector 34 Highway5G.gNodeB1.x2ppp[0].queue queueBitLength:vector ETV
attr autoWarmupFilter false
attr interpolationmode sample-hold
attr recordingmode vector
attr source "warmup(atomic(constant0(packetPushEnded) + sum(packetLength(packetPushStarted)) - sum(packetLength(packetPulled)) - sum(packetLength(packetRemoved)) - sum(packetLength(packetDropped))))"
attr title "queue bit length"
attr unit b
34	1182722 147 0 109069 0 6.0500101068 10 0 0 0 0
34	54891922 22 3214587 3214587 44.05001 44.05001 1 0 0 0 0
34	68824016 71 3505124 3798923 46.00001 48.05001 3 0 0 0 0
34	82734754 54 4465920 4807897 52.2000101068 54.2000101068 2 0 0 0 0
vector 35 Highway5G.gNodeB1.x2ppp[0].ppp transmissionState:vector ETV
attr interpolationmode sample-hold
attr recordingmode vector
attr source transmissionStateChanged
attr title "tx state"
35	1182869 223 0 109073 0 6.0500101508 11 0 1 5 5
35	54891944 49 3214587 3214589 44.05001 44.0500100568 2 0 1 1 1
35	68824087 152 3505124 3798925 46.00001 48.0500100568 6 0 1 3 3
35	82734808 108 4465920 4807898 52.2000101068 54.2000101508 4 0 1 2 2
vector 36 Highway5G.gNodeB1.x2ppp[1].queue queueLength:vector ETV
attr autoWarmupFilter false
attr interpolationmode sample-hold
attr recordingmode vector
attr source "warmup(atomic(constant0(packetPushEnded) + count(packetPushStarted) - count(packetPulled) - count(packetRemoved) - count(packetDropped)))"
attr title "queue length"
attr unit pk
36	1183092 147 0 107456 0 6.0000101068 10 0 0 0 0
36	14001852 94 786455 880262 21.05001 22.2000101068 4 0 0 0 0
36	27327039 147 1677104 2015237 31.05001 34.2000101068 6 0 0 0 0
36	41057884 49 2101664 2128487 35.00001 35.2500101068 2 0 0 0 0
36	68824239 27 3541878 3541878 46.2500101068 46.2500101068 1 0 0 0 0
36	82734916 54 4473751 4816973 52.2500101068 54.2500101068 2 0 0 0 0
36	96638759 147 4957105 5354174 55.00001 57.2000101068 6 0 1 1 1
vector 37 Highway5G.gNodeB1.x2ppp[1].queue queueBitLength:vector ETV
attr autoWarmupFilter false
attr interpolationmode sample-hold
attr recordingmode vector
attr source "warmup(atomic(constant0(packetPushEnded) + sum(packetLength(packetPushStarted)) - sum(packetLength(packetPulled)) - sum(packetLength(packetRemoved)) - sum(packetLength(packetDropped))))"
attr title "queue bit length"
attr unit b
37	1183239 147 0 107456 0 6.0000101068 10 0 0 0 0
37	14001946 94 786455 880262 21.05001 22.2000101068 4 0 0 0 0
37	27327186 147 1677104 2015237 31.05001 34.2000101068 6 0 0 0 0
37	41057933 49 2101664 2128487 35.00001 35.2500101068 2 0 0 0 0
37	68824266 27 3541878 3541878 46.2500101068 46.2500101068 1 0 0 0 0
37	82734970 54 4473751 4816973 52.2500101068 54.2500101068 2 0 0 0 0
37	96638906 149 4957105 5354174 55.00001 57.2000101068 6 0 512 512 262144
vector 38 Highway5G.gNodeB1.x2ppp[1].ppp transmissionState:vector ETV
attr interpolationmode sample-hold
attr recordingmode vector
attr source transmissionStateChanged
attr title "tx state"
38	1183386 223 0 107460 0 6.0000101508 11 0 1 5 5
38	14002040 198 786455 880263 21.05001 22.2000101508 8 0 1 4 4
38	27327333 309 1677104 2015238 31.05001 34.2000101508 12 0 1 6 6
38	41057982 103 2101664 2128488 35.00001 35.2500101508 4 0 1 2 2
38	68824293 54 3541878 3541880 46.2500101068 46.2500101508 2 0 1 1 1
38	82735024 108 4473751 4816974 52.2500101068 54.2500101508 4 0 1 2 2
38	96639055 260 4957105 5354175 55.00001 57.2000101508 10 0 1 5 5
vector 39 Highway5G.gNodeB1.pppMEHostIf.queue queueLength:vector ETV
attr autoWarmupFilter false
attr interpolationmode sample-hold
attr recordingmode vector
attr source "warmup(atomic(constant0(packetPushEnded) + count(packetPushStarted) - count(packetPulled) - count(packetRemoved) - count(packetDropped)))"
attr title "queue length"
attr unit pk
39	1183609 45 0 0 0 0 5 0 0 0 0
vector 40 Highway5G.gNodeB1.pppMEHostIf.queue queueBitLength:vector ETV
attr autoWarmupFilter false
attr interpolationmode sample-hold
attr recordingmode vector
attr source "warmup(atomic(constant0(packetPushEnded) + sum(packetLength(packetPushStarted)) - sum(packetLength(packetPulled)) - sum(packetLength(packetRemoved)) - sum(packetLength(packetDropped))))"
attr title "queue bit length"
attr unit b
40	1183654 45 0 0 0 0 5 0 0 0 0
vector 41 Highway5G.gNodeB1.pppMEHostIf.ppp transmissionState:vector ETV
attr interpolationmode sample-hold
attr recordingmode vector
attr source transmissionStateChanged
attr title "tx state"
41	1183699 9 0 0 0 0 1 0 0 0 0
vector 42 Highway5G.gNodeB1.udp passedUpPk:vector(count) ETV
attr interpolationmode none
attr recordingmode vector(count)
attr source packetSentToUpper
attr title "packets passed up, count"
42	1183708 9 0 0 0 0 1 0 0 0 0
vector 43 Highway5G.gNodeB1.udp droppedPkWrongPort:vector(count) ETV
attr interpolationmode none
attr recordingmode vector(count)
attr source packetDropReasonIsNoPortFound(packetDropped)
attr title "packets dropped (wrong port), count"
43	1183717 9 0 0 0 0 1 0 0 0 0
vector 44 Highway5G.gNodeB1.udp droppedPkBadChecksum:vector(count) ETV
attr interpolationmode none
attr recordingmode vector(count)
attr source packetDropReasonIsIncorrectlyReceived(packetDropped)
attr title "packets dropped (checksum error), count"
44	1183726 9 0 0 0 0 1 0 0 0 0
vector 45 Highway5G.gNodeB2.pppIf.queue queueLength:vector ETV
attr autoWarmupFilter false
attr interpolationmode sample-hold
attr recordingmode vector
attr source "warmup(atomic(constant0(packetPushEnded) + count(packetPushStarted) - count(packetPulled) - count(packetRemoved) - count(packetDropped)))"
attr title "queue length"
attr unit pk
45	1183735 6544 0 649998 0 18.862 359 0 2 4 6
45	14002238 15137 651111 1342915 18.882 27.728 755 0 1 49 49
45	27327642 19673 1343478 2039641 27.734 34.431 954 0 1 104 104
45	41058085 18271 2041580 2738187 34.449 40.3640000888 911 0 1 23 23
45	54891993 23121 2739705 3447089 40.375 45.61 1111 0 1 133 133
45	68824347 11622 3448440 4178583 45.619 50.341 588 0 0 0 0
45	82735132 11191 4180022 4903494 50.35 54.723 562 0 1 5 5
45	96639315 4694 4906503 5610380 54.739 58.576 243 0 0 0 0
45	109738304 2433 5611162 5880127 58.58 59.996 125 0 0 0 0
vector 46 Highway5G.gNodeB2.pppIf.queue queueBitLength:vector ETV
attr autoWarmupFilter false
attr interpolationmode sample-hold
attr recordingmode vector
attr source "warmup(atomic(constant0(packetPushEnded) + sum(packetLength(packetPushStarted)) - sum(packetLength(packetPulled)) - sum(packetLength(packetRemoved)) - sum(packetLength(packetDropped))))"
attr title "queue bit length"
attr unit b
46	1190279 6551 0 649998 0 18.862 359 0 1664 3328 4153344
46	14017375 15235 651111 1342915 18.882 27.728 755 0 832 40768 33918976
46	27347315 19881 1343478 2039641 27.734 34.431 954 0 832 86528 71991296
46	41076356 18317 2041580 2738187 34.449 40.3640000888 911 0 832 19136 15921152
46	54915114 23387 2739705 3447089 40.375 45.61 1111 0 832 110656 92065792
46	68835969 11622 3448440 4178583 45.619 50.341 588 0 0 0 0
46	82746323 11201 4180022 4903494 50.35 54.723 562 0 832 4160 3461120
46	96644009 4694 4906503 5610380 54.739 58.576 243 0 0 0 0
46	109740737 2433 5611162 5880127 58.58 59.996 125 0 0 0 0
vector 47 Highway5G.gNodeB2.pppIf.ppp transmissionState:vector ETV
attr interpolationmode sample-hold
attr recordingmode vector
attr source transmissionStateChanged
attr title "tx state"
47	1196830 15427 0 650027 0 18.8620000888 705 0 1 352 352
47	14032610 32914 651111 1342957 18.882 27.7280000888 1412 0 1 706 706
47	27367196 40543 1343478 2039673 27.734 34.4310000888 1700 0 1 850 850
47	41094673 41787 2041580 2738193 34.449 40.3640001776 1776 0 1 888 888
47	54938501 46867 2739705 3447141 40.375 45.6100000888 1956 0 1 978 978
47	68847591 27471 3448440 4178583 45.619 50.341 1175 0 1 588 588
47	82757524 26157 4178635 4903534 50.3410000888 54.7230000888 1115 0 1 557 557
47	96648703 11255 4906503 5610459 54.739 58.5760000888 486 0 1 243 243
47	109743170 5808 5611162 5880196 58.58 59.9960000888 250 0 1 125 125
vector 48 Highway5G.gNodeB2.x2ppp[0].queue queueLength:vector ETV
attr autoWarmupFilter false
attr interpolationmode sample-hold
attr recordingmode vector
attr source "warmup(atomic(constant0(packetPushEnded) + count(packetPushStarted) - count(packetPulled) - count(packetRemoved) - count(packetDropped)))"
attr title "queue length"
attr unit pk
48	1212257 142 0 109060 0 6.05001 10 0 0 0 0
48	54985368 27 3214596 3214596 44.0500101068 44.0500101068 1 0 0 0 0
48	68875062 76 3505123 3830386 46.00001 48.2500101068 3 0 0 0 0
48	82783681 44 4434277 4772491 52.00001 54.00001 2 0 0 0 0
vector 49 Highway5G.gNodeB2.x2ppp[0].queue queueBitLength:vector ETV
attr autoWarmupFilter false
attr interpolationmode sample-hold
attr recordingmode vector
attr source "warmup(atomic(constant0(packetPushEnded) + sum(packetLength(packetPushStarted)) - sum(packetLength(packetPulled)) - sum(packetLength(packetRemoved)) - sum(packetLength(packetDropped))))"
attr title "queue bit length"
attr unit b
49	1212399 142 0 109060 0 6.05001 10 0 0 0 0
49	54985395 27 3214596 3214596 44.0500101068 44.0500101068 1 0 0 0 0
49	68875138 76 3505123 3830386 46.00001 48.2500101068 3 0 0 0 0
49	82783725 44 4434277 4772491 52.00001 54.00001 2 0 0 0 0
vector 50 Highway5G.gNodeB2.x2ppp[0].ppp transmissionState:vector ETV
attr interpolationmode sample-hold
attr recordingmode vector
attr source transmissionStateChanged
attr title "tx state"
50	1212541 218 0 109062 0 6.0500100568 11 0 1 5 5
50	54985422 54 3214596 3214600 44.0500101068 44.0500101508 2 0 1 1 1
50	68875214 157 3505123 3830387 46.00001 48.2500101508 6 0 1 3 3
50	82783769 98 4434277 4772492 52.00001 54.0000100568 4 0 1 2 2
vector 51 Highway5G.gNodeB2.x2ppp[1].queue queueLength:vector ETV
attr autoWarmupFilter false
attr interpolationmode sample-hold
attr recordingmode vector
attr source "warmup(atomic(constant0(packetPushEnded) + count(packetPushStarted) - count(packetPulled) - count(packetRemoved) - count(packetDropped)))"
attr title "queue length"
attr unit pk
51	1212759 122 0 307 0 0.0000004836 9 0 0 0 0
51	54985476 27 3207327 3207327 44.0000101068 44.0000101068 1 0 0 0 0
51	68875371 54 3541879 3822519 46.2500101068 48.2000101068 2 0 0 0 0
vector 52 Highway5G.gNodeB2.x2ppp[1].queue queueBitLength:vector ETV
attr autoWarmupFilter false
attr interpolationmode sample-hold
attr recordingmode vector
attr source "warmup(atomic(constant0(packetPushEnded) + sum(packetLength(packetPushStarted)) - sum(packetLength(packetPulled)) - sum(packetLength(packetRemoved)) - sum(packetLength(packetDropped))))"
attr title "queue bit length"
attr unit b
52	1212881 122 0 307 0 0.0000004836 9 0 0 0 0
52	54985503 27 3207327 3207327 44.0000101068 44.0000101068 1 0 0 0 0
52	68875425 54 3541879 3822519 46.2500101068 48.2000101068 2 0 0 0 0
vector 53 Highway5G.gNodeB2.x2ppp[1].ppp transmissionState:vector ETV
attr interpolationmode sample-hold
attr recordingmode vector
attr source transmissionStateChanged
attr title "tx state"
53	1213003 173 0 323 0 0.000000518 9 0 1 4 4
53	54985530 54 3207327 3207331 44.0000101068 44.0000101508 2 0 1 1 1
53	68875479 108 3541879 3822520 46.2500101068 48.2000101508 4 0 1 2 2
vector 54 Highway5G.gNodeB2.pppMEHostIf.queue queueLength:vector ETV
attr autoWarmupFilter false
attr interpolationmode sample-hold
attr recordingmode vector
attr source "warmup(atomic(constant0(packetPushEnded) + count(packetPushStarted) - count(packetPulled) - count(packetRemoved) - count(packetDropped)))"
attr title "queue length"
attr unit pk
54	1213176 45 0 0 0 0 5 0 0 0 0
vector 55 Highway5G.gNodeB2.pppMEHostIf.queue queueBitLength:vector ETV
attr autoWarmupFilter false
attr interpolationmode sample-hold
attr recordingmode vector
attr source "warmup(atomic(constant0(packetPushEnded) + sum(packetLength(packetPushStarted)) - sum(packetLength(packetPulled)) - sum(packetLength(packetRemoved)) - sum(packetLength(packetDropped))))"
attr title "queue bit length"
attr unit b
55	1213221 45 0 0 0 0 5 0 0 0 0
vector 56 Highway5G.gNodeB2.pppMEHostIf.ppp transmissionState:vector ETV
attr interpolationmode sample-hold
attr recordingmode vector
attr source transmissionStateChanged
attr title "tx state"
56	1213266 9 0 0 0 0 1 0 0 0 0
vector 57 Highway5G.gNodeB2.udp passedUpPk:vector(count) ETV
attr interpolationmode none
attr recordingmode vector(count)
attr source packetSentToUpper
attr title "packets passed up, count"
57	1213275 9 0 0 0 0 1 0 0 0 0
vector 58 Highway5G.gNodeB2.udp droppedPkWrongPort:vector(count) ETV
attr interpolationmode none
attr recordingmode vector(count)
attr source packetDropReasonIsNoPortFound(packetDropped)
attr title "packets dropped (wrong port), count"
58	1213284 9 0 0 0 0 1 0 0 0 0
vector 59 Highway5G.gNodeB2.udp droppedPkBadChecksum:vector(count) ETV
attr interpolationmode none
attr recordingmode vector(count)
attr source packetDropReasonIsIncorrectlyReceived(packetDropped)
attr title "packets dropped (checksum error), count"
59	1213293 9 0 0 0 0 1 0 0 0 0
vector 60 Highway5G.gNodeB3.pppIf.queue queueLength:vector ETV
attr autoWarmupFilter false
attr interpolationmode sample-hold
attr recordingmode vector
attr source "warmup(atomic(constant0(packetPushEnded) + count(packetPushStarted) - count(packetPulled) - count(packetRemoved) - count(packetDropped)))"
attr title "queue length"
attr unit pk
60	1213302 76124 0 650996 0 18.88 3977 0 16 765 3321
60	14065524 80691 651122 1343151 18.882 27.73 3966 0 2 609 631
60	27407739 91565 1343508 2040601 27.734 34.44 4306 0 3 1181 1501
60	41136460 107826 2041336 2738008 34.447 40.363 4930 0 5 2700 5178
60	54985584 97101 2738333 3447445 40.365 45.6120000888 4503 0 4 1628 2722
60	68875587 96461 3447584 4178449 45.613 50.3400000888 4497 0 3 1281 1643
60	82783867 89490 4178603 4905954 50.341 54.736 4214 0 3 1010 1326
60	96659958 124062 4906147 5610178 54.737 58.5750000888 5682 0 4 2382 3636
60	109748978 42066 5610784 5880381 58.578 59.997 1924 0 4 1030 1882
vector 61 Highway5G.gNodeB3.pppIf.queue queueBitLength:vector ETV
attr autoWarmupFilter false
attr interpolationmode sample-hold
attr recordingmode vector
attr source "warmup(atomic(constant0(packetPushEnded) + sum(packetLength(packetPushStarted)) - sum(packetLength(packetPulled)) - sum(packetLength(packetRemoved)) - sum(packetLength(packetDropped))))"
attr title "queue bit length"
attr unit b
61	1289426 77189 0 650996 0 18.88 3977 0 13312 636480 2298875904
61	14146215 81898 651122 1343151 18.882 27.73 3966 0 1664 506688 436793344
61	27499304 93767 1343508 2040601 27.734 34.44 4306 0 2496 982592 1039028224
61	41244286 112038 2041336 2738008 34.447 40.363 4930 0 4160 2246400 3584335872
61	55082685 99835 2738333 3447445 40.365 45.6120000888 4503 0 3328 1354496 1884233728
61	68972048 98842 3447584 4178449 45.613 50.3400000888 4497 0 2496 1065792 1137324032
61	82873357 91352 4178603 4905954 50.341 54.736 4214 0 2496 840320 917889024
61	96784020 128219 4906147 5610178 54.737 58.5750000888 5682 0 3328 1981824 2516926464
61	109791044 43715 5610784 5880381 58.578 59.997 1924 0 3328 856960 1302765568
vector 62 Highway5G.gNodeB3.pppIf.ppp transmissionState:vector ETV
attr interpolationmode sample-hold
attr recordingmode vector
attr source transmissionStateChanged
attr title "tx state"
62	1366615 157714 0 650996 0 18.88 7046 0 1 3523 3523
62	14228113 158866 651017 1343192 18.8800000888 27.7300000888 6759 0 1 3379 3379
62	27593071 167249 1343508 2040628 27.734 34.4400000888 6882 0 1 3441 3441
62	41356324 178017 2041336 2738026 34.447 40.3630000888 7184 0 1 3592 3592
62	55182520 170624 2738333 3447451 40.365 45.6120001776 6962 0 1 3481 3481
62	69070890 173029 3447584 4178455 45.613 50.3400001776 7084 0 1 3542 3542
62	82964709 167247 4178603 4905954 50.341 54.736 6895 0 1 3448 3448
62	96912239 205726 4906019 5610189 54.7360000888 58.5750001776 8309 0 1 4154 4154
62	109834759 68613 5610784 5880413 58.578 59.9970000888 2764 0 1 1382 1382
vector 63 Highway5G.gNodeB3.x2ppp[0].queue queueLength:vector ETV
attr autoWarmupFilter false
attr interpolationmode sample-hold
attr recordingmode vector
attr source "warmup(atomic(constant0(packetPushEnded) + count(packetPushStarted) - count(packetPulled) - count(packetRemoved) - count(packetDropped)))"
attr title "queue length"
attr unit pk
63	1524329 142 0 107448 0 6.00001 10 0 0 0 0
63	14386979 94 782949 884557 21.00001 22.2500101068 4 0 0 0 0
63	27760320 147 1672147 2020536 31.00001 34.2500101068 6 0 0 0 0
63	41534341 49 2107233 2123305 35.05001 35.2000101068 2 0 0 0 0
63	69243919 22 3512218 3512218 46.05001 46.05001 1 0 0 0 0
63	83131956 44 4442066 4780957 52.05001 54.05001 2 0 0 0 0
63	97117965 147 4957123 5362915 55.0000101636 57.2500101068 6 0 1 1 1
vector 64 Highway5G.gNodeB3.x2ppp[0].queue queueBitLength:vector ETV
attr autoWarmupFilter false
attr interpolationmode sample-hold
attr recordingmode vector
attr source "warmup(atomic(constant0(packetPushEnded) + sum(packetLength(packetPushStarted)) - sum(packetLength(packetPulled)) - sum(packetLength(packetRemoved)) - sum(packetLength(packetDropped))))"
attr title "queue bit length"
attr unit b
64	1524471 142 0 107448 0 6.00001 10 0 0 0 0
64	14387073 94 782949 884557 21.00001 22.2500101068 4 0 0 0 0
64	27760467 147 1672147 2020536 31.00001 34.2500101068 6 0 0 0 0
64	41534390 49 2107233 2123305 35.05001 35.2000101068 2 0 0 0 0
64	69243941 22 3512218 3512218 46.05001 46.05001 1 0 0 0 0
64	83132000 44 4442066 4780957 52.05001 54.05001 2 0 0 0 0
64	97118112 149 4957123 5362915 55.0000101636 57.2500101068 6 0 512 512 262144
vector 65 Highway5G.gNodeB3.x2ppp[0].ppp transmissionState:vector ETV
attr interpolationmode sample-hold
attr recordingmode vector
attr source transmissionStateChanged
attr title "tx state"
65	1524613 218 0 107449 0 6.0000100568 11 0 1 5 5
65	14387167 198 782949 884558 21.00001 22.2500101508 8 0 1 4 4
65	27760614 309 1672147 2020537 31.00001 34.2500101508 12 0 1 6 6
65	41534439 103 2107233 2123306 35.05001 35.2000101508 4 0 1 2 2
65	69243963 49 3512218 3512222 46.05001 46.0500100568 2 0 1 1 1
65	83132044 98 4442066 4780959 52.05001 54.0500100568 4 0 1 2 2
65	97118261 260 4957123 5362916 55.0000101636 57.2500101508 10 0 1 5 5
vector 66 Highway5G.gNodeB3.x2ppp[1].queue queueLength:vector ETV
attr autoWarmupFilter false
attr interpolationmode sample-hold
attr recordingmode vector
attr source "warmup(atomic(constant0(packetPushEnded) + count(packetPushStarted) - count(packetPulled) - count(packetRemoved) - count(packetDropped)))"
attr title "queue length"
attr unit pk
66	1524831 122 0 305 0 0.0000004836 9 0 0 0 0
vector 67 Highway5G.gNodeB3.x2ppp[1].queue queueBitLength:vector ETV
attr autoWarmupFilter false
attr interpolationmode sample-hold
attr recordingmode vector
attr source "warmup(atomic(constant0(packetPushEnded) + sum(packetLength(packetPushStarted)) - sum(packetLength(packetPulled)) - sum(packetLength(packetRemoved)) - sum(packetLength(packetDropped))))"
attr title "queue bit length"
attr unit b
67	1524953 122 0 305 0 0.0000004836 9 0 0 0 0
vector 68 Highway5G.gNodeB3.x2ppp[1].ppp transmissionState:vector ETV
attr interpolationmode sample-hold
attr recordingmode vector
attr source transmissionStateChanged
attr title "tx state"
68	1525075 173 0 322 0 0.000000518 9 0 1 4 4
vector 69 Highway5G.gNodeB3.pppMEHostIf.queue queueLength:vector ETV
attr autoWarmupFilter false
attr interpolationmode sample-hold
attr recordingmode vector
attr source "warmup(atomic(constant0(packetPushEnded) + count(packetPushStarted) - count(packetPulled) - count(packetRemoved) - count(packetDropped)))"
attr title "queue length"
attr unit pk
69	1525248 45 0 0 0 0 5 0 0 0 0
vector 70 Highway5G.gNodeB3.pppMEHostIf.queue queueBitLength:vector ETV
attr autoWarmupFilter false
attr interpolationmode sample-hold
attr recordingmode vector
attr source "warmup(atomic(constant0(packetPushEnded) + sum(packetLength(packetPushStarted)) - sum(packetLength(packetPulled)) - sum(packetLength(packetRemoved)) - sum(packetLength(packetDropped))))"
attr title "queue bit length"
attr unit b
70	1525293 45 0 0 0 0 5 0 0 0 0
vector 71 Highway5G.gNodeB3.pppMEHostIf.ppp transmissionState:vector ETV
attr interpolationmode sample-hold
attr recordingmode vector
attr source transmissionStateChanged
attr title "tx state"
71	1525338 9 0 0 0 0 1 0 0 0 0
vector 72 Highway5G.gNodeB3.udp passedUpPk:vector(count) ETV
attr interpolationmode none
attr recordingmode vector(count)
attr source packetSentToUpper
attr title "packets passed up, count"
72	1525347 9 0 0 0 0 1 0 0 0 0
vector 73 Highway5G.gNodeB3.udp droppedPkWrongPort:vector(count) ETV
attr interpolationmode none
attr recordingmode vector(count)
attr source packetDropReasonIsNoPortFound(packetDropped)
attr title "packets dropped (wrong port), count"
73	1525356 9 0 0 0 0 1 0 0 0 0
vector 74 Highway5G.gNodeB3.udp droppedPkBadChecksum:vector(count) ETV
attr interpolationmode none
attr recordingmode vector(count)
attr source packetDropReasonIsIncorrectlyReceived(packetDropped)
attr title "packets dropped (checksum error), count"
74	1525365 9 0 0 0 0 1 0 0 0 0
vector 75 Highway5G.gNodeB4.pppIf.queue queueLength:vector ETV
attr autoWarmupFilter false
attr interpolationmode sample-hold
attr recordingmode vector
attr source "warmup(atomic(constant0(packetPushEnded) + count(packetPushStarted) - count(packetPulled) - count(packetRemoved) - count(packetDropped)))"
attr title "queue length"
attr unit pk
75	1525374 45 0 0 0 0 5 0 0 0 0
75	55353144 294 3140121 3446774 43.515 45.608 15 0 0 0 0
75	69244012 4375 3449849 4175818 45.628 50.324 221 0 1 1 1
75	83132142 3500 4179091 4903304 50.344 54.722 175 0 0 0 0
75	97118521 3860 4907042 5610392 54.742 58.576 193 0 0 0 0
75	109903372 1260 5614158 5879542 58.596 59.993 63 0 0 0 0
vector 76 Highway5G.gNodeB4.pppIf.queue queueBitLength:vector ETV
attr autoWarmupFilter false
attr interpolationmode sample-hold
attr recordingmode vector
attr source "warmup(atomic(constant0(packetPushEnded) + sum(packetLength(packetPushStarted)) - sum(packetLength(packetPulled)) - sum(packetLength(packetRemoved)) - sum(packetLength(packetDropped))))"
attr title "queue bit length"
attr unit b
76	1525419 45 0 0 0 0 5 0 0 0 0
76	55353438 294 3140121 3446774 43.515 45.608 15 0 0 0 0
76	69248387 4377 3449849 4175818 45.628 50.324 221 0 832 832 692224
76	83135642 3500 4179091 4903304 50.344 54.722 175 0 0 0 0
76	97122381 3860 4907042 5610392 54.742 58.576 193 0 0 0 0
76	109904632 1260 5614158 5879542 58.596 59.993 63 0 0 0 0
vector 77 Highway5G.gNodeB4.pppIf.ppp transmissionState:vector ETV
attr interpolationmode sample-hold
attr recordingmode vector
attr source transmissionStateChanged
attr title "tx state"
77	1525464 9 0 0 0 0 1 0 0 0 0
77	55353732 699 3140121 3446810 43.515 45.6080000888 30 0 1 15 15
77	69252764 10295 3449849 4175858 45.628 50.3240000888 440 0 1 220 220
77	83139142 8225 4179091 4903357 50.344 54.7220000888 350 0 1 175 175
77	97126241 9071 4907042 5610460 54.742 58.5760000888 386 0 1 193 193
77	109905892 2961 5614158 5879562 58.596 59.9930000888 126 0 1 63 63
vector 78 Highway5G.gNodeB4.x2ppp[0].queue queueLength:vector ETV
attr autoWarmupFilter false
attr interpolationmode sample-hold
attr recordingmode vector
attr source "warmup(atomic(constant0(packetPushEnded) + count(packetPushStarted) - count(packetPulled) - count(packetRemoved) - count(packetDropped)))"
attr title "queue length"
attr unit pk
78	1525473 122 0 303 0 0.0000004836 9 0 0 0 0
vector 79 Highway5G.gNodeB4.x2ppp[0].queue queueBitLength:vector ETV
attr autoWarmupFilter false
attr interpolationmode sample-hold
attr recordingmode vector
attr source "warmup(atomic(constant0(packetPushEnded) + sum(packetLength(packetPushStarted)) - sum(packetLength(packetPulled)) - sum(packetLength(packetRemoved)) - sum(packetLength(packetDropped))))"
attr title "queue bit length"
attr unit b
79	1525595 122 0 303 0 0.0000004836 9 0 0 0 0
vector 80 Highway5G.gNodeB4.x2ppp[0].ppp transmissionState:vector ETV
attr interpolationmode sample-hold
attr recordingmode vector
attr source transmissionStateChanged
attr title "tx state"
80	1525717 173 0 321 0 0.000000518 9 0 1 4 4
vector 81 Highway5G.gNodeB4.x2ppp[1].queue queueLength:vector ETV
attr autoWarmupFilter false
attr interpolationmode sample-hold
attr recordingmode vector
attr source "warmup(atomic(constant0(packetPushEnded) + count(packetPushStarted) - count(packetPulled) - count(packetRemoved) - count(packetDropped)))"
attr title "queue length"
attr unit pk
81	1525890 122 0 299 0 0.0000004836 9 0 0 0 0
81	55354431 22 3207319 3207319 44.00001 44.00001 1 0 0 0 0
81	69263059 44 3512219 3791036 46.05001 48.00001 2 0 0 0 0
vector 82 Highway5G.gNodeB4.x2ppp[1].queue queueBitLength:vector ETV
attr autoWarmupFilter false
attr interpolationmode sample-hold
attr recordingmode vector
attr source "warmup(atomic(constant0(packetPushEnded) + sum(packetLength(packetPushStarted)) - sum(packetLength(packetPulled)) - sum(packetLength(packetRemoved)) - sum(packetLength(packetDropped))))"
attr title "queue bit length"
attr unit b
82	1526012 122 0 299 0 0.0000004836 9 0 0 0 0
82	55354453 22 3207319 3207319 44.00001 44.00001 1 0 0 0 0
82	69263103 44 3512219 3791036 46.05001 48.00001 2 0 0 0 0
vector 83 Highway5G.gNodeB4.x2ppp[1].ppp transmissionState:vector ETV
attr interpolationmode sample-hold
attr recordingmode vector
attr source transmissionStateChanged
attr title "tx state"
83	1526134 173 0 319 0 0.000000518 9 0 1 4 4
83	55354475 49 3207319 3207320 44.00001 44.0000100568 2 0 1 1 1
83	69263147 98 3512219 3791037 46.05001 48.0000100568 4 0 1 2 2
vector 84 Highway5G.gNodeB4.pppMEHostIf.queue queueLength:vector ETV
attr autoWarmupFilter false
attr interpolationmode sample-hold
attr recordingmode vector
attr source "warmup(atomic(constant0(packetPushEnded) + count(packetPushStarted) - count(packetPulled) - count(packetRemoved) - count(packetDropped)))"
attr title "queue length"
attr unit pk
84	1526307 45 0 0 0 0 5 0 0 0 0
vector 85 Highway5G.gNodeB4.pppMEHostIf.queue queueBitLength:vector ETV
attr autoWarmupFilter false
attr interpolationmode sample-hold
attr recordingmode vector
attr source "warmup(atomic(constant0(packetPushEnded) + sum(packetLength(packetPushStarted)) - sum(packetLength(packetPulled)) - sum(packetLength(packetRemoved)) - sum(packetLength(packetDropped))))"
attr title "queue bit length"
attr unit b
85	1526352 45 0 0 0 0 5 0 0 0 0
vector 86 Highway5G.gNodeB4.pppMEHostIf.ppp transmissionState:vector ETV
attr interpolationmode sample-hold
attr recordingmode vector
attr source transmissionStateChanged
attr title "tx state"
86	1526397 9 0 0 0 0 1 0 0 0 0
vector 87 Highway5G.gNodeB4.udp passedUpPk:vector(count) ETV
attr interpolationmode none
attr recordingmode vector(count)
attr source packetSentToUpper
attr title "packets passed up, count"
87	1526406 9 0 0 0 0 1 0 0 0 0
vector 88 Highway5G.gNodeB4.udp droppedPkWrongPort:vector(count) ETV
attr interpolationmode none
attr recordingmode vector(count)
attr source packetDropReasonIsNoPortFound(packetDropped)
attr title "packets dropped (wrong port), count"
88	1526415 9 0 0 0 0 1 0 0 0 0
vector 89 Highway5G.gNodeB4.udp droppedPkBadChecksum:vector(count) ETV
attr interpolationmode none
attr recordingmode vector(count)
attr source packetDropReasonIsIncorrectlyReceived(packetDropped)
attr title "packets dropped (checksum error), count"
89	1526424 9 0 0 0 0 1 0 0 0 0
vector 90 Highway5G.gNodeB1.sctp "Throughput of Association 94" ETV
90	1526433 10 66 66 0 0 1 0 0 0 0
90	55354524 44 3214603 3214603 44.0500102008 44.0500102008 1 0.0039954587796396 0.0039954587796396 0.0039954587796396 1.5963690859799e-05
90	69263245 86 3534215 3830390 46.2000102008 48.2500102008 2 0.013023255813953 0.013658536585366 0.026681792399319 0.00035616081364944
vector 91 Highway5G.gNodeB1.sctp "Throughput of Association 95" ETV
91	1526443 10 69 69 0 0 1 0 0 0 0
91	14387365 85 786471 884561 21.0500102008 22.2500102008 2 0.0083610410788927 0.023333333333333 0.031694374412226 0.00061435145236736
91	27760923 87 1698068 2020540 31.2500102008 34.2500102008 2 0.0031111111111111 0.018666666666667 0.021777777777778 0.00035812345679014
91	97135312 87 4957130 5362919 55.0000102576 57.2500102008 2 0.0026987951733353 0.012444444758598 0.015143239931933 0.00016214770073742
vector 92 Highway5G.gNodeB2.sctp "Throughput of Association 96" ETV
92	1526453 51 74 109076 0 6.0500102008 2 0 0.029090860041315 0.029090860041315 0.00084627813794338
92	69263331 45 3534214 3534214 46.2000102008 46.2000102008 1 0.00069738480697385 0.00069738480697385 0.00069738480697385 4.8634556899795e-07
92	83147367 75 4465924 4807901 52.2000102008 54.2000102008 2 0.0046666666666667 0.014 0.018666666666667 0.00021777777777778
vector 93 Highway5G.gNodeB2.sctp "Throughput of Association 97" ETV
93	1526504 10 77 77 0 0 1 0 0 0 0
vector 94 Highway5G.gNodeB3.sctp "Throughput of Association 98" ETV
94	1526514 50 82 107463 0 6.0000102008 2 0 0.02933328346284 0.02933328346284 0.00086044151871132
94	14387450 43 797063 797063 21.2000102008 21.2000102008 1 0.0018421052631579 0.0018421052631579 0.0018421052631579 3.393351800554e-06
94	27761010 118 1692809 2015241 31.2000102008 34.2000102008 3 0.0056 0.026666666666667 0.046625641025641 0.0009486512557528
94	41534542 43 2128491 2128491 35.2500102008 35.2500102008 1 0.026666666666667 0.026666666666667 0.026666666666667 0.00071111111111113
94	69263376 44 3541886 3541886 46.2500102008 46.2500102008 1 0.0025454545454545 0.0025454545454545 0.0025454545454545 6.479338842975e-06
94	83147442 75 4473755 4816977 52.2500102008 54.2500102008 2 0.0046666666666667 0.014 0.018666666666667 0.00021777777777778
94	97135399 43 5354178 5354178 57.2000102008 57.2000102008 1 0.018983050847458 0.018983050847458 0.018983050847458 0.00036035621947718
vector 95 Highway5G.gNodeB3.sctp "Throughput of Association 99" ETV
95	1526564 10 85 85 0 0 1 0 0 0 0
vector 96 Highway5G.gNodeB4.sctp "Throughput of Association 100" ETV
96	1526574 10 90 90 0 0 1 0 0 0 0
96	55354568 44 3207334 3207334 44.0000102008 44.0000102008 1 0.0039999990726548 0.0039999990726548 0.0039999990726548 1.5999992581239e-05
96	69263420 86 3541887 3822523 46.2500102008 48.2000102008 2 0.012444444444444 0.014358974358974 0.026803418803418 0.00036104434217253
vector 97 Highway5G.gNodeB4.sctp "Throughput of Association 101" ETV
97	1526584 10 93 93 0 0 1 0 0 0 0
vector 98 Highway5G.gNodeB1.sctp "Throughput of Association 49" ETV
98	1526594 51 96 109065 0 6.0500101068 2 0 0.029090860493304 0.029090860493304 0.00084627816424088
98	69263506 44 3505131 3505131 46.0000101068 46.0000101068 1 0.0011013767209011 0.0011013767209011 0.0011013767209011 1.2130306813429e-06
98	83147517 75 4434281 4772495 52.0000101068 54.0000101068 2 0.0073333333333333 0.022 0.029333333333333 0.00053777777777778
vector 99 Highway5G.gNodeB1.sctp "Fast Recovery State 49:192.168.6.2" ETV
99	1526645 10 96 96 0 0 1 0 0 0 0
vector 100 Highway5G.gNodeB1.sctp "Throughput of Association 50" ETV
100	1526655 53 97 107452 0 6.0000101068 2 0 0.029333283922394 0.029333283922394 0.00086044154567178
100	14387493 44 782953 782953 21.0000101068 21.0000101068 1 0.0029333333333333 0.0029333333333333 0.0029333333333333 8.6044444444442e-06
100	27761128 121 1672151 1994583 31.0000101068 34.0000101068 3 0.0088 0.041904761904762 0.073268864468865 0.0023425877948182
100	41534585 44 2107238 2107238 35.0500101068 35.0500101068 1 0.041904761904762 0.041904761904762 0.041904761904762 0.0017560090702948
100	69263550 32 3512228 3512228 46.0500101068 46.0500101068 1 0.004 0.004 0.004 1.6e-05
100	83147592 77 4442071 4780962 52.0500101068 54.0500101068 2 0.0073333333333333 0.022 0.029333333333333 0.00053777777777778
100	97135442 86 4966726 5318300 55.0500101636 57.0000101068 2 0.022564103221354 0.0879999950016 0.11056409822295 0.0082531378744655
vector 101 Highway5G.gNodeB1.sctp "Fast Recovery State 50:192.168.7.2" ETV
101	1526708 11 97 97 0 0 1 0 0 0 0
vector 102 Highway5G.gNodeB2.sctp "Throughput of Association 54" ETV
102	1526719 11 98 98 0 0 1 0 0 0 0
102	55354612 45 3214592 3214592 44.0500101068 44.0500101068 1 0.0039954587881657 0.0039954587881657 0.0039954587881657 1.5963690927931e-05
102	69263582 88 3505132 3798928 46.0000101068 48.0500101068 2 0.021463414634146 0.022564102564103 0.044027517198249 0.00096981689228063
vector 103 Highway5G.gNodeB2.sctp "Fast Recovery State 54:192.168.6.1" ETV
103	1526730 11 98 98 0 0 1 0 0 0 0
vector 104 Highway5G.gNodeB2.sctp "Throughput of Association 55" ETV
104	1526741 11 99 99 0 0 1 0 0 0 0
104	55354657 45 3207323 3207323 44.0000101068 44.0000101068 1 0.0039999990812002 0.0039999990812002 0.0039999990812002 1.5999992649602e-05
104	69263670 88 3512229 3791040 46.0500101068 48.0000101068 2 0.021463414634146 0.022564102564103 0.044027517198249 0.00096981689228063
vector 105 Highway5G.gNodeB2.sctp "Fast Recovery State 55:192.168.11.2" ETV
105	1526752 11 99 99 0 0 1 0 0 0 0
vector 106 Highway5G.gNodeB3.sctp "Throughput of Association 59" ETV
106	1526763 12 100 100 0 0 1 0 0 0 0
106	14387537 44 786460 786460 21.0500101068 21.0500101068 1 0.0083610411162294 0.0083610411162294 0.0083610411162294 6.9907008547279e-05
106	27761249 77 1677109 1999857 31.0500101068 34.0500101068 2 0.0088 0.029333333333333 0.038133333333333 0.00093788444444442
106	97135528 88 4957110 5327119 55.0000101068 57.0500101068 2 0.004200477326969 0.042926829268293 0.047127306595262 0.0018603566808036
vector 107 Highway5G.gNodeB3.sctp "Fast Recovery State 59:192.168.6.1" ETV
107	1526775 12 100 100 0 0 1 0 0 0 0
vector 108 Highway5G.gNodeB3.sctp "Throughput of Association 60" ETV
108	1526787 12 101 101 0 0 1 0 0 0 0
vector 109 Highway5G.gNodeB3.sctp "Fast Recovery State 60:192.168.11.2" ETV
109	1526799 12 101 101 0 0 1 0 0 0 0
vector 110 Highway5G.gNodeB4.sctp "Throughput of Association 64" ETV
110	1526811 12 102 102 0 0 1 0 0 0 0
vector 111 Highway5G.gNodeB4.sctp "Fast Recovery State 64:192.168.7.2" ETV
111	1526823 12 102 102 0 0 1 0 0 0 0
vector 112 Highway5G.gNodeB4.sctp "Throughput of Association 65" ETV
112	1526835 12 103 103 0 0 1 0 0 0 0
vector 113 Highway5G.gNodeB4.sctp "Fast Recovery State 65:192.168.6.2" ETV
113	1526847 12 103 103 0 0 1 0 0 0 0
vector 114 Highway5G.gNodeB1.x2ppp[0].queue incomingPacketLengths:vector ETV
attr interpolationmode none
attr recordingmode vector
attr source packetLength(packetPushStarted)
attr title "incoming packet lengths"
attr unit b
114	1526859 118 128 109069 0 6.0500101068 5 288 1440 3840 3805184
114	55354702 25 3214587 3214587 44.05001 44.05001 1 512 512 512 262144
114	69263758 80 3505124 3798923 46.00001 48.05001 3 384 512 1408 671744
114	83147669 60 4465920 4807897 52.2000101068 54.2000101068 2 384 384 768 294912
vector 115 Highway5G.gNodeB1.x2ppp[0].queue queueingTime:vector ETV
attr interpolationmode none
attr recordingmode vector
attr source queueingTime(packetPulled)
attr title "queueing times"
attr unit s
115	1526977 107 128 109069 0 6.0500101068 5 0 0 0 0
115	55354727 23 3214587 3214587 44.05001 44.05001 1 0 0 0 0
115	69263838 74 3505124 3798923 46.00001 48.05001 3 0 0 0 0
115	83147729 56 4465920 4807897 52.2000101068 54.2000101068 2 0 0 0 0
vector 116 Highway5G.gNodeB1.x2ppp[0].queue outgoingPacketLengths:vector ETV
attr interpolationmode none
attr recordingmode vector
attr source packetLength(packetPulled)
attr title "outgoing packet lengths"
attr unit b
116	1527084 118 128 109069 0 6.0500101068 5 288 1440 3840 3805184
116	55354750 25 3214587 3214587 44.05001 44.05001 1 512 512 512 262144
116	69263912 80 3505124 3798923 46.00001 48.05001 3 384 512 1408 671744
116	83147785 60 4465920 4807897 52.2000101068 54.2000101068 2 384 384 768 294912
vector 117 Highway5G.gNodeB1.x2ppp[0].ppp rcvdPkFromHl:vector(packetBytes) ETV
attr interpolationmode none
attr recordingmode vector(packetBytes)
attr source packetReceivedFromUpper
attr title "packets received from higher layer, packetBytes"
117	1527202 115 128 109069 0 6.0500101068 5 36 180 480 59456
117	55354775 24 3214587 3214587 44.05001 44.05001 1 64 64 64 4096
117	69263992 77 3505124 3798923 46.00001 48.05001 3 48 64 176 10496
117	83147845 58 4465920 4807897 52.2000101068 54.2000101068 2 48 48 96 4608
vector 118 Highway5G.gNodeB1.x2ppp[0].ppp txPk:vector(packetBytes) ETV
attr interpolationmode none
attr recordingmode vector(packetBytes)
attr source packetSentToLower
attr title "packets transmitted, packetBytes"
118	1527317 115 128 109069 0 6.0500101068 5 43 187 515 66421
118	55354799 24 3214587 3214587 44.05001 44.05001 1 71 71 71 5041
118	69264069 77 3505124 3798923 46.00001 48.05001 3 55 71 197 13107
118	83147903 58 4465920 4807897 52.2000101068 54.2000101068 2 55 55 110 6050
vector 119 Highway5G.gNodeB1.x2ppp[1].queue incomingPacketLengths:vector ETV
attr interpolationmode none
attr recordingmode vector
attr source packetLength(packetPushStarted)
attr title "incoming packet lengths"
attr unit b
119	1527432 118 129 107456 0 6.0000101068 5 288 1440 3840 3805184
119	14387581 106 786455 880262 21.05001 22.2000101068 4 384 512 1792 819200
119	27761326 165 1677104 2015237 31.05001 34.2000101068 6 384 512 2688 1228800
119	41534629 55 2101664 2128487 35.00001 35.2500101068 2 384 512 896 409600
119	69264146 30 3541878 3541878 46.2500101068 46.2500101068 1 384 384 384 147456
119	83147961 60 4473751 4816973 52.2500101068 54.2500101068 2 384 384 768 294912
119	97135616 135 4957105 5354174 55.00001 57.2000101068 5 384 512 2304 1081344
vector 120 Highway5G.gNodeB1.x2ppp[1].queue queueingTime:vector ETV
attr interpolationmode none
attr recordingmode vector
attr source queueingTime(packetPulled)
attr title "queueing times"
attr unit s
120	1527550 107 129 107456 0 6.0000101068 5 0 0 0 0
120	14387687 98 786455 880262 21.05001 22.2000101068 4 0 0 0 0
120	27761491 153 1677104 2015237 31.05001 34.2000101068 6 0 0 0 0
120	41534684 51 2101664 2128487 35.00001 35.2500101068 2 0 0 0 0
120	69264176 28 3541878 3541878 46.2500101068 46.2500101068 1 0 0 0 0
120	83148021 56 4473751 4816973 52.2500101068 54.2500101068 2 0 0 0 0
120	97135751 137 4957105 5354174 55.00001 57.2000101068 5 0 5.68e-08 5.68e-08 3.22624e-15
vector 121 Highway5G.gNodeB1.x2ppp[1].queue outgoingPacketLengths:vector ETV
attr interpolationmode none
attr recordingmode vector
attr source packetLength(packetPulled)
attr title "outgoing packet lengths"
attr unit b
121	1527657 118 129 107456 0 6.0000101068 5 288 1440 3840 3805184
121	14387785 106 786455 880262 21.05001 22.2000101068 4 384 512 1792 819200
121	27761644 165 1677104 2015237 31.05001 34.2000101068 6 384 512 2688 1228800
121	41534735 55 2101664 2128487 35.00001 35.2500101068 2 384 512 896 409600
121	69264204 30 3541878 3541878 46.2500101068 46.2500101068 1 384 384 384 147456
121	83148077 60 4473751 4816973 52.2500101068 54.2500101068 2 384 384 768 294912
121	97135888 140 4957105 5354174 55.00001 57.2000101068 5 384 512 2304 1081344
vector 122 Highway5G.gNodeB1.x2ppp[1].ppp rcvdPkFromHl:vector(packetBytes) ETV
attr interpolationmode none
attr recordingmode vector(packetBytes)
attr source packetReceivedFromUpper
attr title "packets received from higher layer, packetBytes"
122	1527775 115 129 107456 0 6.0000101068 5 36 180 480 59456
122	14387891 102 786455 880262 21.05001 22.2000101068 4 48 64 224 12800
122	27761809 159 1677104 2015237 31.05001 34.2000101068 6 48 64 336 19200
122	41534790 53 2101664 2128487 35.00001 35.2500101068 2 48 64 112 6400
122	69264234 29 3541878 3541878 46.2500101068 46.2500101068 1 48 48 48 2304
122	83148137 58 4473751 4816973 52.2500101068 54.2500101068 2 48 48 96 4608
122	97136028 135 4957105 5354174 55.00001 57.2000101068 5 48 64 288 16896
vector 123 Highway5G.gNodeB1.x2ppp[1].ppp txPk:vector(packetBytes) ETV
attr interpolationmode none
attr recordingmode vector(packetBytes)
attr source packetSentToLower
attr title "packets transmitted, packetBytes"
123	1527890 115 129 107456 0 6.0000101068 5 43 187 515 66421
123	14387993 102 786455 880262 21.05001 22.2000101068 4 55 71 252 16132
123	27761968 159 1677104 2015237 31.05001 34.2000101068 6 55 71 378 24198
123	41534843 53 2101664 2128487 35.00001 35.2500101068 2 55 71 126 8066
123	69264263 29 3541878 3541878 46.2500101068 46.2500101068 1 55 55 55 3025
123	83148195 58 4473751 4816973 52.2500101068 54.2500101068 2 55 55 110 6050
123	97136163 135 4957105 5354174 55.00001 57.2000101068 5 55 71 323 21173
vector 124 Highway5G.gNodeB2.x2ppp[0].queue incomingPacketLengths:vector ETV
attr interpolationmode none
attr recordingmode vector
attr source packetLength(packetPushStarted)
attr title "incoming packet lengths"
attr unit b
124	1528005 113 130 109060 0 6.05001 5 288 1440 3968 3919872
124	55354823 30 3214596 3214596 44.0500101068 44.0500101068 1 384 384 384 147456
124	69264292 85 3505123 3830386 46.00001 48.2500101068 3 384 512 1280 557056
124	83148253 50 4434277 4772491 52.00001 54.00001 2 512 512 1024 524288
vector 125 Highway5G.gNodeB2.x2ppp[0].queue queueingTime:vector ETV
attr interpolationmode none
attr recordingmode vector
attr source queueingTime(packetPulled)
attr title "queueing times"
attr unit s
125	1528118 102 130 109060 0 6.05001 5 0 0 0 0
125	55354853 28 3214596 3214596 44.0500101068 44.0500101068 1 0 0 0 0
125	69264377 79 3505123 3830386 46.00001 48.2500101068 3 0 0 0 0
125	83148303 46 4434277 4772491 52.00001 54.00001 2 0 0 0 0
vector 126 Highway5G.gNodeB2.x2ppp[0].queue outgoingPacketLengths:vector ETV
attr interpolationmode none
attr recordingmode vector
attr source packetLength(packetPulled)
attr title "outgoing packet lengths"
attr unit b
126	1528220 113 130 109060 0 6.05001 5 288 1440 3968 3919872
126	55354881 30 3214596 3214596 44.0500101068 44.0500101068 1 384 384 384 147456
126	69264456 85 3505123 3830386 46.00001 48.2500101068 3 384 512 1280 557056
126	83148349 50 4434277 4772491 52.00001 54.00001 2 512 512 1024 524288
vector 127 Highway5G.gNodeB2.x2ppp[0].ppp rcvdPkFromHl:vector(packetBytes) ETV
attr interpolationmode none
attr recordingmode vector(packetBytes)
attr source packetReceivedFromUpper
attr title "packets received from higher layer, packetBytes"
127	1528333 110 130 109060 0 6.05001 5 36 180 496 61248
127	55354911 29 3214596 3214596 44.0500101068 44.0500101068 1 48 48 48 2304
127	69264541 82 3505123 3830386 46.00001 48.2500101068 3 48 64 160 8704
127	83148399 48 4434277 4772491 52.00001 54.00001 2 64 64 128 8192
vector 128 Highway5G.gNodeB2.x2ppp[0].ppp txPk:vector(packetBytes) ETV
attr interpolationmode none
attr recordingmode vector(packetBytes)
attr source packetSentToLower
attr title "packets transmitted, packetBytes"
128	1528443 110 130 109060 0 6.05001 5 43 187 531 68437
128	55354940 29 3214596 3214596 44.0500101068 44.0500101068 1 55 55 55 3025
128	69264623 82 3505123 3830386 46.00001 48.2500101068 3 55 71 181 11091
128	83148447 48 4434277 4772491 52.00001 54.00001 2 71 71 142 10082
vector 129 Highway5G.gNodeB2.x2ppp[1].queue incomingPacketLengths:vector ETV
attr interpolationmode none
attr recordingmode vector
attr source packetLength(packetPushStarted)
attr title "incoming packet lengths"
attr unit b
129	1528553 90 131 307 0 0.0000004836 4 288 1440 3456 3657728
129	55354969 30 3207327 3207327 44.0000101068 44.0000101068 1 384 384 384 147456
129	69264705 60 3541879 3822519 46.2500101068 48.2000101068 2 384 384 768 294912
vector 130 Highway5G.gNodeB2.x2ppp[1].queue queueingTime:vector ETV
attr interpolationmode none
attr recordingmode vector
attr source queueingTime(packetPulled)
attr title "queueing times"
attr unit s
130	1528643 81 131 307 0 0.0000004836 4 0 0 0 0
130	55354999 28 3207327 3207327 44.0000101068 44.0000101068 1 0 0 0 0
130	69264765 56 3541879 3822519 46.2500101068 48.2000101068 2 0 0 0 0
vector 131 Highway5G.gNodeB2.x2ppp[1].queue outgoingPacketLengths:vector ETV
attr interpolationmode none
attr recordingmode vector
attr source packetLength(packetPulled)
attr title "outgoing packet lengths"
attr unit b
131	1528724 90 131 307 0 0.0000004836 4 288 1440 3456 3657728
131	55355027 30 3207327 3207327 44.0000101068 44.0000101068 1 384 384 384 147456
131	69264821 60 3541879 3822519 46.2500101068 48.2000101068 2 384 384 768 294912
vector 132 Highway5G.gNodeB2.x2ppp[1].ppp rcvdPkFromHl:vector(packetBytes) ETV
attr interpolationmode none
attr recordingmode vector(packetBytes)
attr source packetReceivedFromUpper
attr title "packets received from higher layer, packetBytes"
132	1528814 88 131 307 0 0.0000004836 4 36 180 432 57152
132	55355057 29 3207327 3207327 44.0000101068 44.0000101068 1 48 48 48 2304
132	69264881 58 3541879 3822519 46.2500101068 48.2000101068 2 48 48 96 4608
vector 133 Highway5G.gNodeB2.x2ppp[1].ppp txPk:vector(packetBytes) ETV
attr interpolationmode none
attr recordingmode vector(packetBytes)
attr source packetSentToLower
attr title "packets transmitted, packetBytes"
133	1528902 88 131 307 0 0.0000004836 4 43 187 460 63396
133	55355086 29 3207327 3207327 44.0000101068 44.0000101068 1 55 55 55 3025
133	69264939 58 3541879 3822519 46.2500101068 48.2000101068 2 55 55 110 6050
vector 134 Highway5G.gNodeB3.x2ppp[0].queue incomingPacketLengths:vector ETV
attr interpolationmode none
attr recordingmode vector
attr source packetLength(packetPushStarted)
attr title "incoming packet lengths"
attr unit b
134	1528990 113 132 107448 0 6.00001 5 288 1440 3968 3919872
134	14388095 106 782949 884557 21.00001 22.2500101068 4 384 512 1792 819200
134	27762127 165 1672147 2020536 31.00001 34.2500101068 6 384 512 2688 1228800
134	41534896 55 2107233 2123305 35.05001 35.2000101068 2 384 512 896 409600
134	69264997 25 3512218 3512218 46.05001 46.05001 1 512 512 512 262144
134	83148495 50 4442066 4780957 52.05001 54.05001 2 512 512 1024 524288
134	97136298 135 4957123 5362915 55.0000101636 57.2500101068 5 384 512 2304 1081344
vector 135 Highway5G.gNodeB3.x2ppp[0].queue queueingTime:vector ETV
attr interpolationmode none
attr recordingmode vector
attr source queueingTime(packetPulled)
attr title "queueing times"
attr unit s
135	1529103 102 132 107448 0 6.00001 5 0 0 0 0
135	14388201 98 782949 884557 21.00001 22.2500101068 4 0 0 0 0
135	27762292 153 1672147 2020536 31.00001 34.2500101068 6 0 0 0 0
135	41534951 51 2107233 2123305 35.05001 35.2000101068 2 0 0 0 0
135	69265022 23 3512218 3512218 46.05001 46.05001 1 0 0 0 0
135	83148545 46 4442066 4780957 52.05001 54.05001 2 0 0 0 0
135	97136433 137 4957123 5362915 55.0000101636 57.2500101068 5 0 5.68e-08 5.68e-08 3.22624e-15
vector 136 Highway5G.gNodeB3.x2ppp[0].queue outgoingPacketLengths:vector ETV
attr interpolationmode none
attr recordingmode vector
attr source packetLength(packetPulled)
attr title "outgoing packet lengths"
attr unit b
136	1529205 113 132 107448 0 6.00001 5 288 1440 3968 3919872
136	14388299 106 782949 884557 21.00001 22.2500101068 4 384 512 1792 819200
136	27762445 165 1672147 2020536 31.00001 34.2500101068 6 384 512 2688 1228800
136	41535002 55 2107233 2123305 35.05001 35.2000101068 2 384 512 896 409600
136	69265045 25 3512218 3512218 46.05001 46.05001 1 512 512 512 262144
136	83148591 50 4442066 4780957 52.05001 54.05001 2 512 512 1024 524288
136	97136570 140 4957123 5362915 55.0000101636 57.2500101068 5 384 512 2304 1081344
vector 137 Highway5G.gNodeB3.x2ppp[0].ppp rcvdPkFromHl:vector(packetBytes) ETV
attr interpolationmode none
attr recordingmode vector(packetBytes)
attr source packetReceivedFromUpper
attr title "packets received from higher layer, packetBytes"
137	1529318 110 132 107448 0 6.00001 5 36 180 496 61248
137	14388405 102 782949 884557 21.00001 22.2500101068 4 48 64 224 12800
137	27762610 159 1672147 2020536 31.00001 34.2500101068 6 48 64 336 19200
137	41535057 53 2107233 2123305 35.05001 35.2000101068 2 48 64 112 6400
137	69265070 24 3512218 3512218 46.05001 46.05001 1 64 64 64 4096
137	83148641 48 4442066 4780957 52.05001 54.05001 2 64 64 128 8192
137	97136710 135 4957123 5362915 55.0000101636 57.2500101068 5 48 64 288 16896
vector 138 Highway5G.gNodeB3.x2ppp[0].ppp txPk:vector(packetBytes) ETV
attr interpolationmode none
attr recordingmode vector(packetBytes)
attr source packetSentToLower
attr title "packets transmitted, packetBytes"
138	1529428 110 132 107448 0 6.00001 5 43 187 531 68437
138	14388507 102 782949 884557 21.00001 22.2500101068 4 55 71 252 16132
138	27762769 159 1672147 2020536 31.00001 34.2500101068 6 55 71 378 24198
138	41535110 53 2107233 2123305 35.05001 35.2000101068 2 55 71 126 8066
138	69265094 24 3512218 3512218 46.05001 46.05001 1 71 71 71 5041
138	83148689 48 4442066 4780957 52.05001 54.05001 2 71 71 142 10082
138	97136845 135 4957123 5362915 55.0000101636 57.2500101068 5 55 71 323 21173
vector 139 Highway5G.gNodeB3.x2ppp[1].queue incomingPacketLengths:vector ETV
attr interpolationmode none
attr recordingmode vector
attr source packetLength(packetPushStarted)
attr title "incoming packet lengths"
attr unit b
139	1529538 90 133 305 0 0.0000004836 4 288 1440 3456 3657728
vector 140 Highway5G.gNodeB3.x2ppp[1].queue queueingTime:vector ETV
attr interpolationmode none
attr recordingmode vector
attr source queueingTime(packetPulled)
attr title "queueing times"
attr unit s
140	1529628 81 133 305 0 0.0000004836 4 0 0 0 0
vector 141 Highway5G.gNodeB3.x2ppp[1].queue outgoingPacketLengths:vector ETV
attr interpolationmode none
attr recordingmode vector
attr source packetLength(packetPulled)
attr title "outgoing packet lengths"
attr unit b
141	1529709 90 133 305 0 0.0000004836 4 288 1440 3456 3657728
vector 142 Highway5G.gNodeB3.x2ppp[1].ppp rcvdPkFromHl:vector(packetBytes) ETV
attr interpolationmode none
attr recordingmode vector(packetBytes)
attr source packetReceivedFromUpper
attr title "packets received from higher layer, packetBytes"
142	1529799 88 133 305 0 0.0000004836 4 36 180 432 57152
vector 143 Highway5G.gNodeB3.x2ppp[1].ppp txPk:vector(packetBytes) ETV
attr interpolationmode none
attr recordingmode vector(packetBytes)
attr source packetSentToLower
attr title "packets transmitted, packetBytes"
143	1529887 88 133 305 0 0.0000004836 4 43 187 460 63396
vector 144 Highway5G.gNodeB4.x2ppp[0].queue incomingPacketLengths:vector ETV
attr interpolationmode none
attr recordingmode vector
attr source packetLength(packetPushStarted)
attr title "incoming packet lengths"
attr unit b
144	1529975 90 134 303 0 0.0000004836 4 288 1440 3456 3657728
vector 145 Highway5G.gNodeB4.x2ppp[0].queue queueingTime:vector ETV
attr interpolationmode none
attr recordingmode vector
attr source queueingTime(packetPulled)
attr title "queueing times"
attr unit s
145	1530065 81 134 303 0 0.0000004836 4 0 0 0 0
vector 146 Highway5G.gNodeB4.x2ppp[0].queue outgoingPacketLengths:vector ETV
attr interpolationmode none
attr recordingmode vector
attr source packetLength(packetPulled)
attr title "outgoing packet lengths"
attr unit b
146	1530146 90 134 303 0 0.0000004836 4 288 1440 3456 3657728
vector 147 Highway5G.gNodeB4.x2ppp[0].ppp rcvdPkFromHl:vector(packetBytes) ETV
attr interpolationmode none
attr recordingmode vector(packetBytes)
attr source packetReceivedFromUpper
attr title "packets received from higher layer, packetBytes"
147	1530236 88 134 303 0 0.0000004836 4 36 180 432 57152
vector 148 Highway5G.gNodeB4.x2ppp[0].ppp txPk:vector(packetBytes) ETV
attr interpolationmode none
attr recordingmode vector(packetBytes)
attr source packetSentToLower
attr title "packets transmitted, packetBytes"
148	1530324 88 134 303 0 0.0000004836 4 43 187 460 63396
vector 149 Highway5G.gNodeB4.x2ppp[1].queue incomingPacketLengths:vector ETV
attr interpolationmode none
attr recordingmode vector
attr source packetLength(packetPushStarted)
attr title "incoming packet lengths"
attr unit b
149	1530412 90 135 299 0 0.0000004836 4 288 1440 3456 3657728
149	55355115 25 3207319 3207319 44.00001 44.00001 1 512 512 512 262144
149	69265118 50 3512219 3791036 46.05001 48.00001 2 512 512 1024 524288
vector 150 Highway5G.gNodeB4.x2ppp[1].queue queueingTime:vector ETV
attr interpolationmode none
attr recordingmode vector
attr source queueingTime(packetPulled)
attr title "queueing times"
attr unit s
150	1530502 81 135 299 0 0.0000004836 4 0 0 0 0
150	55355140 23 3207319 3207319 44.00001 44.00001 1 0 0 0 0
150	69265168 46 3512219 3791036 46.05001 48.00001 2 0 0 0 0
vector 151 Highway5G.gNodeB4.x2ppp[1].queue outgoingPacketLengths:vector ETV
attr interpolationmode none
attr recordingmode vector
attr source packetLength(packetPulled)
attr title "outgoing packet lengths"
attr unit b
151	1530583 90 135 299 0 0.0000004836 4 288 1440 3456 3657728
151	55355163 25 3207319 3207319 44.00001 44.00001 1 512 512 512 262144
151	69265214 50 3512219 3791036 46.05001 48.00001 2 512 512 1024 524288
vector 152 Highway5G.gNodeB4.x2ppp[1].ppp rcvdPkFromHl:vector(packetBytes) ETV
attr interpolationmode none
attr recordingmode vector(packetBytes)
attr source packetReceivedFromUpper
attr title "packets received from higher layer, packetBytes"
152	1530673 88 135 299 0 0.0000004836 4 36 180 432 57152
152	55355188 24 3207319 3207319 44.00001 44.00001 1 64 64 64 4096
152	69265264 48 3512219 3791036 46.05001 48.00001 2 64 64 128 8192
vector 153 Highway5G.gNodeB4.x2ppp[1].ppp txPk:vector(packetBytes) ETV
attr interpolationmode none
[...]
attr recordingmode vector
attr source voIPReceivedThroughput
attr title "Throughput received at the application level"
attr unit Bps
2295	109097041 3565 5228283 5609999 56.5150006252 58.5740004188 83 0.70777668862245 56.680438014516 2413.0282129434 92348.996884969
2295	114554537 3049 5613771 5878660 58.5940004188 59.9880004476 71 57.343754923447 102.68720334129 5693.449661896 469067.4360588
vector 2296 Highway5G.car[41].udp passedUpPk:vector(count) ETV
attr interpolationmode none
attr recordingmode vector(count)
attr source packetSentToUpper
attr title "packets passed up, count"
2296	109100606 20 5406980 5406980 57.5 57.5 1 0 0 0 0
vector 2297 Highway5G.car[41].udp droppedPkWrongPort:vector(count) ETV
attr interpolationmode none
attr recordingmode vector(count)
attr source packetDropReasonIsNoPortFound(packetDropped)
attr title "packets dropped (wrong port), count"
2297	109100626 20 5406980 5406980 57.5 57.5 1 0 0 0 0
vector 2298 Highway5G.car[41].udp droppedPkBadChecksum:vector(count) ETV
attr interpolationmode none
attr recordingmode vector(count)
attr source packetDropReasonIsIncorrectlyReceived(packetDropped)
attr title "packets dropped (checksum error), count"
2298	109100646 20 5406980 5406980 57.5 57.5 1 0 0 0 0
vector 2299 Highway5G.car[41].cellularNic.phy servingCell:vector ETV
attr recordingmode vector
attr source servingCell
attr title "ID of the serving eNodeB for the UE"
attr unit ""
2299	109100666 20 5406980 5406980 57.5 57.5 1 0 0 0 0
vector 2300 Highway5G.car[41].cellularNic.nrChannelModel[0] distance:vector ETV
attr recordingmode vector
attr source distance
attr title "distance between UE and serving base station"
attr unit meters
2300	109100686 264 5406980 5500781 57.5 58 8 149.25296814469 1097.0518879896 5773.1151294487 5196573.4367722
2300	114557586 256 5689794 5881266 59 60 8 142.22689858412 1091.6754911998 5711.9440863951 5100630.4605
vector 2301 Highway5G.car[41].cellularNic.nrPhy servingCell:vector ETV
attr recordingmode vector
attr source servingCell
attr title "ID of the serving eNodeB for the UE"
attr unit ""
2301	109100950 20 5406980 5406980 57.5 57.5 1 1 1 1 1
vector 2302 Highway5G.car[41].app[0] voIPGeneratedThroughput:vector ETV
attr recordingmode vector
attr source voIPGeneratedThroughput
attr title "Throughput generated by the application"
attr unit Bps
2302	109100970 1250 5407003 5608743 57.5 58.567856728346 34 0.69565217391304 23.220928269717 409.73164138778 6465.1352918802
2302	114557842 3189 5612511 5878458 58.587856728346 59.987856728346 71 23.895736730759 70.014170018103 3346.5047123984 170676.59360301
vector 2303 Highway5G.car[41].udp packetSent:vector(packetBytes) ETV
attr interpolationmode none
attr recordingmode vector(packetBytes)
attr source packetSent
attr title "packets sent, packetBytes"
2303	109102220 810 5407005 5608744 57.5 58.567856728346 34 48 48 1632 78336
2303	114561031 2272 5612512 5878459 58.587856728346 59.987856728346 71 48 48 3408 163584
vector 2304 Highway5G.car[41].cellularNic.pdcpRrc receivedPacketFromUpperLayer:vector(packetBytes) ETV
attr interpolationmode none
attr recordingmode vector(packetBytes)
attr source receivedPacketFromUpperLayer
2304	109103030 810 5407011 5608747 57.5 58.567856728346 34 68 68 2312 157216
2304	114563303 2272 5612515 5878462 58.587856728346 59.987856728346 71 68 68 4828 328304
vector 2305 Highway5G.car[41].cellularNic.pdcpRrc sentPacketToLowerLayer:vector(packetBytes) ETV
attr interpolationmode none
attr recordingmode vector(packetBytes)
attr source sentPacketToLowerLayer
2305	109103840 810 5407011 5608747 57.5 58.567856728346 34 69 69 2346 161874
2305	114565575 2272 5612515 5878462 58.587856728346 59.987856728346 71 69 69 4899 338031
vector 2306 Highway5G.car[41].cellularNic.nrRlc.um receivedPacketFromUpperLayer:vector(packetBytes) ETV
attr interpolationmode none
attr recordingmode vector(packetBytes)
attr source receivedPacketFromUpperLayer
2306	109104650 810 5407013 5608748 57.5 58.567856728346 34 69 69 2346 161874
2306	114567847 2272 5612516 5878463 58.587856728346 59.987856728346 71 69 69 4899 338031
vector 2307 Highway5G.car[41].cellularNic.nrMac receivedPacketFromUpperLayer:vector(packetBytes) ETV
attr interpolationmode none
attr recordingmode vector(packetBytes)
attr source receivedPacketFromUpperLayer
2307	109105460 1592 5407016 5609474 57.5 58.572 68 71 71 4828 342788
2307	114570119 3905 5612518 5879245 58.587856728346 59.992 142 71 71 10082 715822
vector 2308 Highway5G.car[41].cellularNic.nrMac sentPacketToLowerLayer:vector(packetBytes) ETV
attr interpolationmode none
attr recordingmode vector(packetBytes)
attr source sentPacketToLowerLayer
2308	109107052 1519 5407221 5609581 57.501 58.572 69 1 73 2589 186549
2308	114574024 3218 5612530 5879347 58.588 59.992 143 1 73 5327 383759
vector 2309 Highway5G.car[41].cellularNic.nrChannelModel[0] measuredSinrUl:vector ETV
attr recordingmode vector
attr source measuredSinrUl
attr title "SINR measured at feedback computation, UL"
attr unit dB
2309	109108571 6439 5407526 5610441 57.502 58.576 180 26.660641903143 31.759779069725 4938.7517938518 135739.68160635
2309	114577242 8480 5611648 5880562 58.582 59.998 237 25.073456202473 31.759779069725 7220.1722043091 220708.01200954
vector 2310 Highway5G.car[41].cellularNic.nrChannelModel[0] measuredSinrDl:vector ETV
attr recordingmode vector
attr source measuredSinrDl
attr title "SINR measured at feedback computation, DL"
attr unit dB
2310	109115010 6439 5407526 5610441 57.502 58.576 180 46.479261752332 53.741000656157 9580.3369866619 510520.47677805
2310	114585722 8480 5611648 5880562 58.582 59.998 237 46.479261752332 51.717117613155 11438.675252094 553482.81276246
vector 2311 Highway5G.car[41].cellularNic.nrMac receivedPacketFromLowerLayer:vector(packetBytes) ETV
attr interpolationmode none
attr recordingmode vector(packetBytes)
attr source receivedPacketFromLowerLayer
2311	109121449 2258 5407721 5609412 57.503 58.571 103 1 1 103 103
2311	114594202 4681 5610651 5880396 58.577 59.997 216 1 1 216 216
vector 2312 Highway5G.car[41].cellularNic.nrMac sentPacketToUpperLayer:vector(packetBytes) ETV
attr interpolationmode none
attr recordingmode vector(packetBytes)
attr source sentPacketToUpperLayer
2312	109123707 748 5407953 5609470 57.505 58.572 34 1 1 34 34
2312	114598883 1562 5613228 5879241 58.592 59.992 71 1 1 71 71
vector 2313 Highway5G.car[41].cellularNic.nrRlc.um rlcPacketLossUl:vector ETV
attr recordingmode vector
attr source rlcPacketLossUl
attr title "rlc Packet Loss"
attr unit ""
2313	109124455 1496 5407955 5610362 57.505 58.576 68 0 0 0 0
2313	114600445 3124 5613230 5880109 58.592 59.996 142 0 0 0 0
vector 2314 Highway5G.car[41].cellularNic.nrRlc.um sentPacketToLowerLayer:vector(packetBytes) ETV
attr interpolationmode none
attr recordingmode vector(packetBytes)
attr source sentPacketToLowerLayer
2314	109125951 782 5407955 5609472 57.505 58.572 34 71 71 2414 171394
2314	114603569 1633 5613230 5879243 58.592 59.992 71 71 71 5041 357911
vector 2315 Highway5G.car[41].cellularNic.nrPhy averageCqiUl:vector ETV
attr recordingmode vector
attr source averageCqiUl
attr title "Average Cqi reported in UL"
attr unit cqi
2315	109126733 804 5408055 5609582 57.505 58.572 35 13 14 458 5996
2315	114605202 1656 5613340 5879348 58.592 59.992 72 13 14 983 13437
vector 2316 Highway5G.car[41].cellularNic.nrChannelModel[0] rcvdSinrUl:vector ETV
attr recordingmode vector
attr source rcvdSinrUl
attr title "SINR measured at packet reception, UL"
attr unit dB
2316	109127537 1260 5408249 5609776 57.506 58.573 35 16.845498114085 26.968948434479 859.58528874537 21199.66755221
2316	114606858 2592 5613544 5879556 58.593 59.993 72 23.311123407632 26.968948434479 1850.3186616113 47769.448307241
vector 2317 Highway5G.car[41].cellularNic.nrMac macDelayUl:vector ETV
attr recordingmode vector
attr source macDelayUl
attr title "Delay at the MAC layer UL"
attr unit s
2317	109128797 883 5408688 5610359 57.509 58.576 34 0.004 0.01 0.142 0.000628
2317	114609450 1845 5614125 5880106 58.596 59.996 71 0.004 0.01 0.29 0.00122
vector 2318 Highway5G.car[41].cellularNic.nrRlc.um rlcPduThroughputUl:vector ETV
attr recordingmode vector
attr source rlcPduThroughputUl
attr title "Throughput at the rlc layer UL"
attr unit Bps
2318	109129680 748 5408691 5610362 57.509 58.576 34 0 0 0 0
2318	114611295 1562 5614128 5880109 58.596 59.996 71 0 0 0 0
vector 2319 Highway5G.car[41].cellularNic.nrRlc.um rlcPduDelayUl:vector ETV
attr recordingmode vector
attr source rlcPduDelayUl
attr title "Delay at the rlc layer UL"
attr unit s
2319	109130428 883 5408691 5610362 57.509 58.576 34 0.004 0.01 0.142 0.000628
2319	114612857 1845 5614128 5880109 58.596 59.996 71 0.004 0.01 0.29 0.00122
vector 2320 Highway5G.car[41].cellularNic.nrRlc.um rlcThroughputUl:vector ETV
attr recordingmode vector
attr source rlcThroughputUl
attr title "Throughput at the rlc layer UL"
attr unit Bps
2320	109131311 1223 5408691 5610362 57.509 58.576 34 1.1998122033073 40.050532641355 706.68590348855 19232.286084511
2320	114614702 2551 5614128 5880109 58.596 59.996 71 41.214417366373 120.7580505367 5771.9241060176 507730.01235036
vector 2321 Highway5G.car[41].cellularNic.nrRlc.um rlcPacketLossTotal:vector ETV
attr recordingmode vector
attr source rlcPacketLossTotal
attr title "rlc Packet Loss"
attr unit ""
2321	109132534 748 5408691 5610362 57.509 58.576 34 0 0 0 0
2321	114617253 1562 5614128 5880109 58.596 59.996 71 0 0 0 0
vector 2322 Highway5G.car[41].cellularNic.nrRlc.um rlcDelayUl:vector ETV
attr recordingmode vector
attr source rlcDelayUl
attr title "Delay at the rlc layer UL"
attr unit s
2322	109133282 947 5408691 5610362 57.509 58.576 34 0.008 0.014 0.280002901578 0.0023411901126159
2322	114618815 2485 5614128 5880109 58.596 59.996 71 0.008143271654 0.014143271654 0.584172287434 0.0048419332592376
vector 2323 Highway5G.car[41].cellularNic.nrRlc.um rlcPduPacketLossUl:vector ETV
attr recordingmode vector
attr source rlcPduPacketLossUl
attr title "rlc Packet Loss"
attr unit ""
2323	109134229 748 5408691 5610362 57.509 58.576 34 0 0 0 0
2323	114621300 1562 5614128 5880109 58.596 59.996 71 0 0 0 0
vector 2324 Highway5G.server.app[41] voIPReceivedThroughput:vector ETV
attr recordingmode vector
attr source voIPReceivedThroughput
attr title "Throughput received at the application level"
attr unit Bps
2324	109134977 1414 5408745 5606717 57.5090003588 58.5560003588 33 0.6955433019256 22.542523258278 386.45528498506 5924.2144750523
2324	114622862 3086 5610489 5880226 58.5760003588 59.9960003588 72 23.217699939728 70.004666559143 3369.2606397422 171168.76332642
vector 2325 Highway5G.car[41].cellularNic.nrMac harqErrorRate_1st_Ul:vector ETV
attr recordingmode vector
attr source harqErrorRate_1st_Ul
attr title "Harq Error Rate Ul (1st tx)"
attr unit ""
2325	109136391 725 5408911 5606887 57.51 58.557 33 0 1 1 1
2325	114625948 1584 5610651 5880396 58.577 59.997 72 0 1 1 1
vector 2326 Highway5G.car[41].cellularNic.nrMac harqErrorRateUl:vector ETV
attr recordingmode vector
attr source harqErrorRateUl
attr title "Harq Error Rate Ul"
attr unit ""
2326	109137116 747 5408911 5606887 57.51 58.557 34 0 1 1 1
2326	114627532 1606 5610651 5880396 58.577 59.997 73 0 1 1 1
vector 2327 Highway5G.car[41].cellularNic.nrMac harqTxAttemptsUl:vector ETV
attr recordingmode vector
attr source harqTxAttemptsUl
attr title "Harq Tx Attempts Ul"
attr unit ""
2327	109137863 725 5408911 5606887 57.51 58.557 33 1 2 34 36
2327	114629138 1584 5610651 5880396 58.577 59.997 72 1 2 73 75
vector 2328 Highway5G.car[38].cellularNic.nrMac harqErrorRate_2nd_Ul:vector ETV
attr recordingmode vector
attr source harqErrorRate_2nd_Ul
attr title "Harq Error Rate Ul (2nd tx)"
attr unit ""
2328	109138588 22 5412228 5412228 57.528 57.528 1 0 0 0 0
vector 2329 Highway5G.server.app[39] voIPFrameDelay:vector ETV
attr recordingmode vector
attr source voIPFrameDelay
attr title "VoIP Frame Delay"
attr unit s
2329	109138610 4280 5444927 5444927 57.7000004788 57.7000004788 107 0.0080003588 0.0140006252 1.0130485148 0.010297949661832
2329	114630722 2418 5881267 5881267 60 60 78 0.008888440786 0.008888560786 0.693302761308 0.0061624194725491
vector 2330 Highway5G.car[41].cellularNic.nrMac harqErrorRate_2nd_Ul:vector ETV
attr recordingmode vector
attr source harqErrorRate_2nd_Ul
attr title "Harq Error Rate Ul (2nd tx)"
attr unit ""
2330	109142890 22 5503509 5503509 58.015 58.015 1 0 0 0 0
2330	114633140 22 5648716 5648716 58.783 58.783 1 0 0 0 0
vector 2331 Highway5G.server.app[40] voIPFrameDelay:vector ETV
attr recordingmode vector
attr source voIPFrameDelay
attr title "VoIP Frame Delay"
attr unit s
2331	109142912 2480 5533376 5533376 58.1740004188 58.1740004188 62 0.0140004788 0.0150006252 0.8690318168 0.012181892137192
2331	114633162 2852 5881267 5881267 60 60 92 0.008844623877 0.014844683877 1.221708927084 0.01686222755434
vector 2332 Highway5G.server.app[41] voIPFrameDelay:vector ETV
attr recordingmode vector
attr source voIPFrameDelay
attr title "VoIP Frame Delay"
attr unit s
2332	109145392 6361 5587736 5587736 58.4560003588 58.4560003588 27 0.0080003588 0.0140004788 0.2230104292 0.0018771733344777
2332	114636014 2418 5881267 5881267 60 60 78 0.008143630454 0.014143630454 0.641203175412 0.0053065834892107
vector 2333 Highway5G.car[37].cellularNic.nrMac harqErrorRate_2nd_Ul:vector ETV
attr recordingmode vector
attr source harqErrorRate_2nd_Ul
attr title "Harq Error Rate Ul (2nd tx)"
attr unit ""
2333	114638432 22 5789163 5789163 59.516 59.516 1 0 0 0 0
vector 2334 Highway5G.server.ppp[0].queue outgoingDataRate:vector ETV
attr interpolationmode linear
attr recordingmode vector
attr source throughput(packetPulled)
attr title "outgoing datarate"
attr unit bps
2334	114638454 11781 5881267 5881267 0.1 60 600 0 0 0 0
vector 2335 Highway5G.server.ppp[0].queue incomingDataRate:vector ETV
attr interpolationmode linear
attr recordingmode vector
attr source throughput(packetPushStarted)
attr title "incoming datarate"
attr unit bps
2335	114650235 11781 5881267 5881267 0.1 60 600 0 0 0 0
vector 2336 Highway5G.router.ppp[1].queue outgoingDataRate:vector ETV
attr interpolationmode linear
attr recordingmode vector
attr source throughput(packetPulled)
attr title "outgoing datarate"
attr unit bps
2336	114662016 11781 5881267 5881267 0.1 60 600 0 0 0 0
vector 2337 Highway5G.router.ppp[1].queue incomingDataRate:vector ETV
attr interpolationmode linear
attr recordingmode vector
attr source throughput(packetPushStarted)
attr title "incoming datarate"
attr unit bps
2337	114673797 11781 5881267 5881267 0.1 60 600 0 0 0 0
vector 2338 Highway5G.upf.ppp[0].queue outgoingDataRate:vector ETV
attr interpolationmode linear
attr recordingmode vector
attr source throughput(packetPulled)
attr title "outgoing datarate"
attr unit bps
2338	114685578 11781 5881267 5881267 0.1 60 600 0 0 0 0
vector 2339 Highway5G.upf.ppp[0].queue incomingDataRate:vector ETV
attr interpolationmode linear
attr recordingmode vector
attr source throughput(packetPushStarted)
attr title "incoming datarate"
attr unit bps
2339	114697359 11781 5881267 5881267 0.1 60 600 0 0 0 0
vector 2340 Highway5G.upf.ppp[1].queue outgoingDataRate:vector ETV
attr interpolationmode linear
attr recordingmode vector
attr source throughput(packetPulled)
attr title "outgoing datarate"
attr unit bps
2340	114709140 11781 5881267 5881267 0.1 60 600 0 0 0 0
vector 2341 Highway5G.upf.ppp[1].queue incomingDataRate:vector ETV
attr interpolationmode linear
attr recordingmode vector
attr source throughput(packetPushStarted)
attr title "incoming datarate"
attr unit bps
2341	114720921 11781 5881267 5881267 0.1 60 600 0 0 0 0
vector 2342 Highway5G.upf.ppp[2].queue outgoingDataRate:vector ETV
attr interpolationmode linear
attr recordingmode vector
attr source throughput(packetPulled)
attr title "outgoing datarate"
attr unit bps
2342	114732702 11781 5881267 5881267 0.1 60 600 0 0 0 0
vector 2343 Highway5G.upf.ppp[2].queue incomingDataRate:vector ETV
attr interpolationmode linear
attr recordingmode vector
attr source throughput(packetPushStarted)
attr title "incoming datarate"
attr unit bps
2343	114744483 11781 5881267 5881267 0.1 60 600 0 0 0 0
vector 2344 Highway5G.upf.ppp[3].queue outgoingDataRate:vector ETV
attr interpolationmode linear
attr recordingmode vector
attr source throughput(packetPulled)
attr title "outgoing datarate"
attr unit bps
2344	114756264 11781 5881267 5881267 0.1 60 600 0 0 0 0
vector 2345 Highway5G.upf.ppp[3].queue incomingDataRate:vector ETV
attr interpolationmode linear
attr recordingmode vector
attr source throughput(packetPushStarted)
attr title "incoming datarate"
attr unit bps
2345	114768045 11781 5881267 5881267 0.1 60 600 0 0 0 0
vector 2346 Highway5G.gNodeB1.pppMEHostIf.queue outgoingDataRate:vector ETV
attr interpolationmode linear
attr recordingmode vector
attr source throughput(packetPulled)
attr title "outgoing datarate"
attr unit bps
2346	114779826 11781 5881267 5881267 0.1 60 600 0 0 0 0
vector 2347 Highway5G.gNodeB1.pppMEHostIf.queue incomingDataRate:vector ETV
attr interpolationmode linear
attr recordingmode vector
attr source throughput(packetPushStarted)
attr title "incoming datarate"
attr unit bps
2347	114791607 11781 5881267 5881267 0.1 60 600 0 0 0 0
vector 2348 Highway5G.gNodeB2.pppMEHostIf.queue outgoingDataRate:vector ETV
attr interpolationmode linear
attr recordingmode vector
attr source throughput(packetPulled)
attr title "outgoing datarate"
attr unit bps
2348	114803388 11781 5881267 5881267 0.1 60 600 0 0 0 0
vector 2349 Highway5G.gNodeB2.pppMEHostIf.queue incomingDataRate:vector ETV
attr interpolationmode linear
attr recordingmode vector
attr source throughput(packetPushStarted)
attr title "incoming datarate"
attr unit bps
2349	114815169 11781 5881267 5881267 0.1 60 600 0 0 0 0
vector 2350 Highway5G.gNodeB3.x2ppp[1].queue outgoingDataRate:vector ETV
attr interpolationmode linear
attr recordingmode vector
attr source throughput(packetPulled)
attr title "outgoing datarate"
attr unit bps
2350	114826950 11785 5881267 5881267 0.1 60 600 0 34560 34560 1194393600
vector 2351 Highway5G.gNodeB3.x2ppp[1].queue incomingDataRate:vector ETV
attr interpolationmode linear
attr recordingmode vector
attr source throughput(packetPushStarted)
attr title "incoming datarate"
attr unit bps
2351	114838735 11785 5881267 5881267 0.1 60 600 0 34560 34560 1194393600
vector 2352 Highway5G.gNodeB3.pppMEHostIf.queue outgoingDataRate:vector ETV
attr interpolationmode linear
attr recordingmode vector
attr source throughput(packetPulled)
attr title "outgoing datarate"
attr unit bps
2352	114850520 11781 5881267 5881267 0.1 60 600 0 0 0 0
vector 2353 Highway5G.gNodeB3.pppMEHostIf.queue incomingDataRate:vector ETV
attr interpolationmode linear
attr recordingmode vector
attr source throughput(packetPushStarted)
attr title "incoming datarate"
attr unit bps
2353	114862301 11781 5881267 5881267 0.1 60 600 0 0 0 0
vector 2354 Highway5G.gNodeB4.x2ppp[0].queue outgoingDataRate:vector ETV
attr interpolationmode linear
attr recordingmode vector
attr source throughput(packetPulled)
attr title "outgoing datarate"
attr unit bps
2354	114874082 11785 5881267 5881267 0.1 60 600 0 34560 34560 1194393600
vector 2355 Highway5G.gNodeB4.x2ppp[0].queue incomingDataRate:vector ETV
attr interpolationmode linear
attr recordingmode vector
attr source throughput(packetPushStarted)
attr title "incoming datarate"
attr unit bps
2355	114885867 11785 5881267 5881267 0.1 60 600 0 34560 34560 1194393600
vector 2356 Highway5G.gNodeB4.pppMEHostIf.queue outgoingDataRate:vector ETV
attr interpolationmode linear
attr recordingmode vector
attr source throughput(packetPulled)
attr title "outgoing datarate"
attr unit bps
2356	114897652 11781 5881267 5881267 0.1 60 600 0 0 0 0
vector 2357 Highway5G.gNodeB4.pppMEHostIf.queue incomingDataRate:vector ETV
attr interpolationmode linear
attr recordingmode vector
attr source throughput(packetPushStarted)
attr title "incoming datarate"
attr unit bps
2357	114909433 11782 5881267 5881267 0.1 60 600 0 0 0 0
