file 440841454 1751888199                                       
version 2
run VoIP-UL-0-20250707-00:32:45-1168970
attr configname VoIP-UL
attr datetime 20250707-00:32:45
attr datetimef 20250707-003245
attr experiment VoIP-UL
attr inifile omnetpp.ini
attr iterationvars ""
attr iterationvarsd ""
attr iterationvarsf ""
attr measurement ""
attr network Highway5G
attr processid 1168970
attr repetition 0
attr replication #0
attr resultdir results
attr runnumber 0
attr seedset 0
config image-path ../../../../../../../OMNET/omnetpp-6.0.3/workspaces/inet4.5/images:../../../../../../../OMNET/omnetpp-6.0.3/workspaces/simu5g/images:../../../../../../../Dev/veins_new/images
config *.server.numApps 45
config *.server.app[*].typename VoIPReceiver
config *.server.app[*].localPort "3000 + ancestorIndex(0)"
config *.car[*].numApps 1
config *.car[*].app[0].typename VoIPSender
config *.car[*].app[0].destAddress "\"server\""
config *.car[*].app[0].destPort "3000 + ancestorIndex(1)"
config cmdenv-express-mode true
config cmdenv-autoflush true
config image-path ../../images
config network Highway5G
config debug-on-errors false
config print-undisposed false
config sim-time-limit 240s
config **.sctp.**.scalar-recording true
config **.sctp.**.vector-recording true
config **.routingRecorder.enabled false
config *.veinsManager.host "\"localhost\""
config *.veinsManager.port 9999
config *.veinsManager.moduleType "\"simu5g.nodes.cars.NRCar\""
config *.veinsManager.moduleName "\"car\""
config *.veinsManager.launchConfig "xmldoc(\"cenarioA.launchd.xml\")"
config *.veinsManager.updateInterval 0.1s
config *.physicalEnvironment.config "xmldoc(\"obstacles.xml\")"
config *.radioMedium.obstacleLoss.typename IdealObstacleLoss
config *.car[*].mobility.typename projectpredicthandover.veins_inet.VeinsInetMobility
config **.mobility.constraintAreaMaxX 3000m
config **.mobility.constraintAreaMinX 0m
config **.mobility.constraintAreaMaxY 3000m
config **.mobility.constraintAreaMinY 0m
config **.mobility.constraintAreaMinZ 0m
config **.mobility.constraintAreaMaxZ 10m
config *.gNodeB1.mobility.initialX 1129.71m
config *.gNodeB1.mobility.initialY 555.867m
config *.gNodeB1.mobility.initialZ 0m
config *.gNodeB1.mobility.constraintAreaMinX 1129.71m
config *.gNodeB1.mobility.constraintAreaMaxX 1129.71m
config *.gNodeB1.mobility.constraintAreaMinY 555.867m
config *.gNodeB1.mobility.constraintAreaMaxY 555.867m
config *.gNodeB1.mobility.constraintAreaMinZ 0m
config *.gNodeB1.mobility.constraintAreaMaxZ 0m
config *.gNodeB2.mobility.initialX 1600m
config *.gNodeB2.mobility.initialY 800m
config *.gNodeB2.mobility.initialZ 0m
config *.gNodeB2.mobility.constraintAreaMinX 1600m
config *.gNodeB2.mobility.constraintAreaMaxX 1600m
config *.gNodeB2.mobility.constraintAreaMinY 800m
config *.gNodeB2.mobility.constraintAreaMaxY 800m
config *.gNodeB2.mobility.constraintAreaMinZ 0m
config *.gNodeB2.mobility.constraintAreaMaxZ 0m
config *.gNodeB3.mobility.initialX 1900m
config *.gNodeB3.mobility.initialY 1100m
config *.gNodeB3.mobility.initialZ 0m
config *.gNodeB3.mobility.constraintAreaMinX 1900m
config *.gNodeB3.mobility.constraintAreaMaxX 1900m
config *.gNodeB3.mobility.constraintAreaMinY 1100m
config *.gNodeB3.mobility.constraintAreaMaxY 1100m
config *.gNodeB3.mobility.constraintAreaMinZ 0m
config *.gNodeB3.mobility.constraintAreaMaxZ 0m
config *.gNodeB4.mobility.initialX 2100m
config *.gNodeB4.mobility.initialY 500m
config *.gNodeB4.mobility.initialZ 0m
config *.gNodeB4.mobility.constraintAreaMinX 2100m
config *.gNodeB4.mobility.constraintAreaMaxX 2100m
config *.gNodeB4.mobility.constraintAreaMinY 500m
config *.gNodeB4.mobility.constraintAreaMaxY 500m
config *.gNodeB4.mobility.constraintAreaMinZ 0m
config *.gNodeB4.mobility.constraintAreaMaxZ 0m
config **.numBands 25
config **.ueTxPower 20
config **.eNodeBTxPower 40
config *.car[*].cellularNic.nrPhy.dynamicCellAssociation true
config *.car[*].masterId 0
config *.car[*].macCellId 0
config *.car[*].nrMasterId 1
config *.car[*].nrMacCellId 1
config *.car[*].cellularNic.nrPhy.handoverThreshold -4
config **.gNodeB1.macCellId 1
config **.gNodeB1.macNodeId 1
config **.gNodeB2.macCellId 2
config **.gNodeB2.macNodeId 2
config **.gNodeB3.macCellId 3
config **.gNodeB3.macNodeId 3
config **.gNodeB4.macCellId 4
config **.gNodeB4.macNodeId 4
config *.car[*].cellularNic.nrMac.dynamicCellAssociation true
config *.car[*].cellularNic.nrMac.enableHandover true
config *.car[*].cellularNic.nrPhy.enableHandover true
config *.gNodeB*.cellularNic.phy.enableHandover true
config *.gNodeB*.cellularNic.nrMac.enableHandover true
config *.gNodeB*.cellularNic.phy.handoverLatency 5ms
config *.gNodeB*.cellularNic.nrMac.handoverLatency 5ms
config *.gNodeB*.cellInfo.broadcastMessageInterval 1s
config *.gNodeB*.x2App[*].server.localPort "5000 + ancestorIndex(1)"
config *.gNodeB*.numX2Apps 2
config *.gNodeB1.x2App[0].client.connectAddress "\"gNodeB2%x2ppp0\""
config *.gNodeB1.x2App[1].client.connectAddress "\"gNodeB3%x2ppp0\""
config *.gNodeB2.x2App[0].client.connectAddress "\"gNodeB1%x2ppp0\""
config *.gNodeB2.x2App[1].client.connectAddress "\"gNodeB4%x2ppp0\""
config *.gNodeB3.x2App[0].client.connectAddress "\"gNodeB1%x2ppp0\""
config *.gNodeB3.x2App[1].client.connectAddress "\"gNodeB4%x2ppp0\""
config *.gNodeB4.x2App[0].client.connectAddress "\"gNodeB3%x2ppp0\""
config *.gNodeB4.x2App[1].client.connectAddress "\"gNodeB2%x2ppp0\""
config **.sctp.nagleEnabled false
config **.sctp.enableHeartbeats false
config *.visualizer.*.obstacleLossVisualizer.displayIntersections true
config *.visualizer.*.obstacleLossVisualizer.displayFaceNormalVectors true
config *.visualizer.*.obstacleLossVisualizer.intersectionLineColor "\"yellow\""
config *.visualizer.*.mediumVisualizer.signalPropagationAnimationSpeed 500/3e8
config *.visualizer.*.mediumVisualizer.signalTransmissionAnimationSpeed 50000/3e8
config *.visualizer.*.mediumVisualizer.displaySignals true
config *.visualizer.canvasVisualizer.mediumVisualizer.displaySignalDepartures false
config *.visualizer.canvasVisualizer.mediumVisualizer.displaySignalArrivals false
config *.visualizer.*.physicalLinkVisualizer.displayLinks true
config **.scalar-recording true
config **.vector-recording true
config **.mobility.tracemobility true
config **.car[*].mobility.posX.vector-recording true
config **.car[*].mobility.posY.vector-recording true
config **.car[*].mobility.posZ.vector-recording true
config **.car[*].mobility.speed.vector-recording true
config **.car[*].mobility.lastPosition.vector-recording true
config **.car[*].app[*].voIPGeneratedThroughput.vector-recording true
config **.car[*].cellularNic.nrPhy.servingCell.vector-recording true
config **.car[*].cellularNic.nrMac.macDelayDL.vector-recording true
config **.car[*].cellularNic.nrMac.macDelayUL.vector-recording true
config **.car[*].cellularNic.nrMac.macThroughputDL.vector-recording true
config **.car[*].cellularNic.nrMac.macThroughputUL.vector-recording true
config **.car[*].cellularNic.nrMac.macCellPacketLossDL.vector-recording true
config **.car[*].cellularNic.nrMac.macCellPacketLossUL.vector-recording true
config **.car[*].cellularNic.nrMac.macBufferOverflowDL.vector-recording true
config **.car[*].cellularNic.nrMac.macBufferOverflowUL.vector-recording true
config **.car[*].cellularNic.nrMac.harqErrorRateDL.vector-recording true
config **.car[*].cellularNic.nrMac.harqErrorRateUL.vector-recording true
config **.car[*].cellularNic.nrMac.harqTxAttemptsDL.vector-recording true
config **.car[*].cellularNic.nrMac.harqTxAttemptsUL.vector-recording true
config **.car[*].cellularNic.nrMac.receivedPacketFromUpperLayer.vector-recording true
config **.car[*].cellularNic.nrMac.receivedPacketFromLowerLayer.vector-recording true
config **.car[*].cellularNic.nrMac.sentPacketToUpperLayer.vector-recording true
config **.car[*].cellularNic.nrMac.sentPacketToLowerLayer.vector-recording true
config **.car[*].cellularNic.nrMac.measuredItbs.vector-recording true
config **.car[*].cellularNic.nrMac.macDelayD2D.vector-recording true
config **.car[*].cellularNic.nrMac.macThroughputD2D.vector-recording true
config **.car[*].cellularNic.nrMac.rcvdD2DModeSwitchNotification.vector-recording true
config **.car[*].cellularNic.nrPhy.averageCqiDL.vector-recording true
config **.car[*].cellularNic.nrPhy.averageCqiUL.vector-recording true

vector 0 Highway5G.server.ppp[0].queue queueLength:vector ETV
attr autoWarmupFilter false
attr interpolationmode sample-hold
attr recordingmode vector
attr source "warmup(atomic(constant0(packetPushEnded) + count(packetPushStarted) - count(packetPulled) - count(packetRemoved) - count(packetDropped)))"
attr title "queue length"
attr unit pk
0	183862 40 0 0 0 0 5 0 0 0 0
vector 1 Highway5G.server.ppp[0].queue queueBitLength:vector ETV
attr autoWarmupFilter false
attr interpolationmode sample-hold
attr recordingmode vector
attr source "warmup(atomic(constant0(packetPushEnded) + sum(packetLength(packetPushStarted)) - sum(packetLength(packetPulled)) - sum(packetLength(packetRemoved)) - sum(packetLength(packetDropped))))"
attr title "queue bit length"
attr unit b
1	183902 40 0 0 0 0 5 0 0 0 0
vector 2 Highway5G.server.ppp[0].ppp transmissionState:vector ETV
attr interpolationmode sample-hold
attr recordingmode vector
attr source transmissionStateChanged
attr title "tx state"
2	183942 8 0 0 0 0 1 0 0 0 0
vector 3 Highway5G.server.udp passedUpPk:vector(count) ETV
attr interpolationmode none
attr recordingmode vector(count)
attr source packetSentToUpper
attr title "packets passed up, count"
3	183950 109069 0 659579 0 16.5790003588 4020 0 4019 8078190 21646856470
3	12399414 128297 659715 1357587 16.5810003588 25.9990003588 4499 4020 8518 28204231 184401012389
3	25675251 138199 1358115 2055179 26.0030003588 32.8950003588 4656 8519 13174 50501304 556173587816
3	39341661 143790 2055583 2754500 32.8990003588 38.7160004188 4793 13175 17967 74631803 1171267542885
3	53096921 144720 2754643 3438647 38.7170003588 43.4970004188 4824 17968 22791 98310708 2012878005636
3	66885473 148799 3438828 4146449 43.4980003588 47.9640003588 4960 22792 27751 125346640 3177866273680
3	80814835 143220 4146627 4856477 47.9650003588 52.3850003588 4774 27752 32525 143881199 4345430565399
3	94686633 146490 4856485 5560981 52.3850004188 56.3930004188 4883 32526 37408 170743861 5980102981629
3	108555172 148050 5560986 6255913 56.3930004788 60.0920004188 4935 37409 42343 196788060 7857136355180
3	122439873 144240 6256298 6975502 60.0940003588 63.9610005388 4808 42344 47151 215145980 9636506896492
3	136325808 144420 6975507 7666461 63.9610005988 67.6500004788 4814 47152 51965 238574619 11832697130739
3	150202375 144930 7666646 8368392 67.6510003588 71.4840003588 4831 51966 56796 262714611 14296078976071
3	164109871 141870 8368573 9055239 71.4850003588 75.2960004188 4729 56797 61525 279772369 16560426181389
3	178203698 145133 9055619 9746970 75.2980003588 79.1650003588 4838 61526 66363 309363491 19791530367219
3	192004142 142463 9746979 10483108 79.1650004188 83.7890003588 4650 66364 71013 319401525 21947590368325
3	206207891 145359 10483279 11188956 83.7900003588 88.0330004788 4689 71014 75702 343975662 25241957923836
3	220801848 142166 11189225 11873015 88.0350003588 92.1910004788 4586 75703 80288 357687363 27906042218989
3	235054625 148924 11873020 12536098 92.1910005388 96.2990003588 4804 80289 85092 397245162 32857640127166
3	249736728 151045 12536405 13246010 96.3010003588 101.1830003588 4836 85093 89928 423200778 37043936601854
3	264174004 151360 13246183 13919709 101.1840003588 105.9210003588 4730 89929 94658 436548255 40299385023865
3	279045844 150684 13919889 14601640 105.9220003588 110.8510003588 4709 94659 99367 456834217 44327559607831
3	294347785 151662 14601775 15308396 110.8520003588 116.6090003588 4615 99368 103982 469230125 47717163901355
3	309050801 146612 15308748 15960839 116.6120003588 122.3830003588 4443 103983 108425 471864372 50121192590710
3	324310372 159456 15961161 16639097 122.3860003588 128.4910004476 4832 108426 113257 535586128 59374571357840
3	340027671 165660 16639720 17336426 128.4970003588 135.8510003588 5020 113258 118277 581152850 67289154729290
3	354899119 150150 17336652 18018270 135.8540003588 144.6600003588 4550 118278 122827 548513875 66132568613475
3	369642611 145593 18018613 18693218 144.6650003588 154.1390003588 4412 122828 127239 551647802 68981612356210
3	385465127 143681 18693479 19395952 154.1440003588 166.2570003588 4354 127240 131593 563479441 72930415421969
3	400543027 129482 19396045 20063102 166.2590003588 181.0530003588 3924 131594 135517 524071782 69997703953326
3	416446352 112464 20063353 20751254 181.0590003588 210.3570003588 3408 135518 138925 467650872 64175052639640
3	432002017 40128 20751405 21053953 210.3650003588 228.0940003588 1216 138926 140141 169672736 23675180545696
vector 4 Highway5G.server.udp droppedPkWrongPort:vector(count) ETV
attr interpolationmode none
attr recordingmode vector(count)
attr source packetDropReasonIsNoPortFound(packetDropped)
attr title "packets dropped (wrong port), count"
4	293019 8 0 0 0 0 1 0 0 0 0
vector 5 Highway5G.server.udp droppedPkBadChecksum:vector(count) ETV
attr interpolationmode none
attr recordingmode vector(count)
attr source packetDropReasonIsIncorrectlyReceived(packetDropped)
attr title "packets dropped (checksum error), count"
5	293027 8 0 0 0 0 1 0 0 0 0
vector 6 Highway5G.router.ppp[0].queue queueLength:vector ETV
attr autoWarmupFilter false
attr interpolationmode sample-hold
attr recordingmode vector
attr source "warmup(atomic(constant0(packetPushEnded) + count(packetPushStarted) - count(packetPulled) - count(packetRemoved) - count(packetDropped)))"
attr title "queue length"
attr unit pk
6	293035 98151 0 659575 0 16.5790002488 4024 0 0 0 0
6	12527711 114800 659711 1357583 16.5810002488 25.9990002488 4499 0 0 0 0
6	25813450 121056 1358111 2055175 26.0030002488 32.8950002488 4656 0 0 0 0
6	39485451 124618 2055579 2754492 32.8990002488 38.7160003088 4793 0 0 0 0
6	53241641 125424 2754635 3438639 38.7170002488 43.4970003088 4824 0 0 0 0
6	67034272 128959 3438820 4146445 43.4980002488 47.9640002488 4960 0 0 0 0
6	80958055 124150 4146613 4856473 47.9650002488 52.3850003088 4775 0 0 0 0
6	94833123 126958 4856482 5560978 52.3850003688 56.3930003688 4883 0 0 0 0
6	108703222 128310 5561185 6256283 56.3940002488 60.0940002488 4935 0 0 0 0
6	122584113 125008 6256289 6975499 60.0940003088 63.9610004888 4808 0 0 0 0
6	136470228 125138 6975754 7666453 63.9620002488 67.6500003688 4813 0 0 0 0
6	150347305 125606 7666638 8368388 67.6510002488 71.4840002488 4831 0 0 0 0
6	164251741 122954 8368564 9055231 71.4850002488 75.2960003088 4729 0 0 0 0
6	178348831 125807 9055610 9746966 75.2980002488 79.1650003088 4839 0 0 0 0
6	192146605 123837 9746975 10483104 79.1650003688 83.7890002488 4649 0 0 0 0
6	206353250 126603 10483275 11188948 83.7900002488 88.0330003688 4689 0 0 0 0
6	220944014 123849 11189221 11873012 88.0350002488 92.1910004288 4587 0 0 0 0
6	235203549 129681 11873204 12536094 92.1920002488 96.2990002488 4803 0 0 0 0
6	249887773 131701 12536397 13246006 96.3010002488 101.1830002488 4836 0 0 0 0
6	264325364 132440 13246174 13919705 101.1840002488 105.9210002488 4730 0 0 0 0
6	279196528 131848 13919881 14601636 105.9220002488 110.8510002488 4709 0 0 0 0
6	294499447 129219 14601771 15308392 110.8520002488 116.6090002488 4615 0 0 0 0
6	309197413 124397 15308744 15960835 116.6120002488 122.3830002488 4443 0 0 0 0
6	324469828 135296 15961157 16639089 122.3860002488 128.4910003376 4832 0 0 0 0
6	340193331 140560 16639711 17336422 128.4970002488 135.8510002488 5020 0 0 0 0
6	355049269 127400 17336644 18018266 135.8540002488 144.6600002488 4550 0 0 0 0
6	369788204 123533 18018609 18693214 144.6650002488 154.1390002488 4412 0 0 0 0
6	385608808 121911 18693475 19395948 154.1440002488 166.2570002488 4354 0 0 0 0
6	400672509 109862 19396041 20063098 166.2590002488 181.0530002488 3924 0 0 0 0
6	416558816 95424 20063349 20751250 181.0590002488 210.3570002488 3408 0 0 0 0
6	432042145 34048 20751401 21053949 210.3650002488 228.0940002488 1216 0 0 0 0
vector 7 Highway5G.router.ppp[0].queue queueBitLength:vector ETV
attr autoWarmupFilter false
attr interpolationmode sample-hold
attr recordingmode vector
attr source "warmup(atomic(constant0(packetPushEnded) + sum(packetLength(packetPushStarted)) - sum(packetLength(packetPulled)) - sum(packetLength(packetRemoved)) - sum(packetLength(packetDropped))))"
attr title "queue bit length"
attr unit b
7	391186 98151 0 659575 0 16.5790002488 4024 0 0 0 0
7	12642511 114800 659711 1357583 16.5810002488 25.9990002488 4499 0 0 0 0
7	25934506 121056 1358111 2055175 26.0030002488 32.8950002488 4656 0 0 0 0
7	39610069 124618 2055579 2754492 32.8990002488 38.7160003088 4793 0 0 0 0
7	53367065 125424 2754635 3438639 38.7170002488 43.4970003088 4824 0 0 0 0
7	67163231 128959 3438820 4146445 43.4980002488 47.9640002488 4960 0 0 0 0
7	81082205 124150 4146613 4856473 47.9650002488 52.3850003088 4775 0 0 0 0
7	94960081 126958 4856482 5560978 52.3850003688 56.3930003688 4883 0 0 0 0
7	108831532 128310 5561185 6256283 56.3940002488 60.0940002488 4935 0 0 0 0
7	122709121 125008 6256289 6975499 60.0940003088 63.9610004888 4808 0 0 0 0
7	136595366 125138 6975754 7666453 63.9620002488 67.6500003688 4813 0 0 0 0
7	150472911 125606 7666638 8368388 67.6510002488 71.4840002488 4831 0 0 0 0
7	164374695 122954 8368564 9055231 71.4850002488 75.2960003088 4729 0 0 0 0
7	178474638 125807 9055610 9746966 75.2980002488 79.1650003088 4839 0 0 0 0
7	192270442 123837 9746975 10483104 79.1650003688 83.7890002488 4649 0 0 0 0
7	206479853 126603 10483275 11188948 83.7900002488 88.0330003688 4689 0 0 0 0
7	221067863 123849 11189221 11873012 88.0350002488 92.1910004288 4587 0 0 0 0
7	235333230 129681 11873204 12536094 92.1920002488 96.2990002488 4803 0 0 0 0
7	250019474 131701 12536397 13246006 96.3010002488 101.1830002488 4836 0 0 0 0
7	264457804 132440 13246174 13919705 101.1840002488 105.9210002488 4730 0 0 0 0
7	279328376 131848 13919881 14601636 105.9220002488 110.8510002488 4709 0 0 0 0
7	294628666 129219 14601771 15308392 110.8520002488 116.6090002488 4615 0 0 0 0
7	309321810 124397 15308744 15960835 116.6120002488 122.3830002488 4443 0 0 0 0
7	324605124 135296 15961157 16639089 122.3860002488 128.4910003376 4832 0 0 0 0
7	340333891 140560 16639711 17336422 128.4970002488 135.8510002488 5020 0 0 0 0
7	355176669 127400 17336644 18018266 135.8540002488 144.6600002488 4550 0 0 0 0
7	369911737 123533 18018609 18693214 144.6650002488 154.1390002488 4412 0 0 0 0
7	385730719 121911 18693475 19395948 154.1440002488 166.2570002488 4354 0 0 0 0
7	400782371 109862 19396041 20063098 166.2590002488 181.0530002488 3924 0 0 0 0
7	416654240 95424 20063349 20751250 181.0590002488 210.3570002488 3408 0 0 0 0
7	432076193 34048 20751401 21053949 210.3650002488 228.0940002488 1216 0 0 0 0
vector 8 Highway5G.router.ppp[0].ppp transmissionState:vector ETV
attr interpolationmode sample-hold
attr recordingmode vector
attr source transmissionStateChanged
attr title "tx state"
8	489337 196230 0 659576 0 16.5790003088 8039 0 1 4019 4019
8	12757311 229600 659711 1357584 16.5810002488 25.9990003088 8998 0 1 4499 4499
8	26055562 242112 1358111 2055176 26.0030002488 32.8950003088 9312 0 1 4656 4656
8	39734687 249236 2055579 2754497 32.8990002488 38.7160003688 9586 0 1 4793 4793
8	53492489 250848 2754635 3438644 38.7170002488 43.4970003688 9648 0 1 4824 4824
8	67292190 257918 3438820 4146446 43.4980002488 47.9640003088 9920 0 1 4960 4960
8	81206355 248300 4146613 4856480 47.9650002488 52.3850003688 9550 0 1 4775 4775
8	95087039 253890 4856482 5560978 52.3850003688 56.3930003688 9765 0 1 4883 4883
8	108959842 256620 5560983 6256283 56.3930004288 60.0940002488 9870 0 1 4935 4935
8	122834129 250042 6256287 6975504 60.0940003088 63.9610005488 9617 0 1 4808 4808
8	136720504 250276 6975754 7666458 63.9620002488 67.6500004288 9626 0 1 4813 4813
8	150598517 251212 7666638 8368389 67.6510002488 71.4840003088 9662 0 1 4831 4831
8	164497649 245908 8368564 9055236 71.4850002488 75.2960003688 9458 0 1 4729 4729
8	178600445 251614 9055610 9746973 75.2980002488 79.1650003688 9678 0 1 4839 4839
8	192394279 247674 9746975 10483105 79.1650003688 83.7890003088 9298 0 1 4649 4649
8	206606456 253206 10483275 11188953 83.7900002488 88.0330004288 9378 0 1 4689 4689
8	221191712 247698 11189221 11873017 88.0350002488 92.1910004888 9174 0 1 4587 4587
8	235462911 259362 11873204 12536095 92.1920002488 96.2990003088 9606 0 1 4803 4803
8	250151175 263402 12536397 13246007 96.3010002488 101.1830003088 9672 0 1 4836 4836
8	264590244 264880 13246174 13919706 101.1840002488 105.9210003088 9460 0 1 4730 4730
8	279460224 263696 13919881 14601637 105.9220002488 110.8510003088 9418 0 1 4709 4709
8	294757885 258438 14601771 15308393 110.8520002488 116.6090003088 9230 0 1 4615 4615
8	309446207 248794 15308744 15960836 116.6120002488 122.3830003088 8886 0 1 4443 4443
8	324740420 270592 15961157 16639094 122.3860002488 128.4910003976 9664 0 1 4832 4832
8	340474451 281120 16639711 17336423 128.4970002488 135.8510003088 10040 0 1 5020 5020
8	355304069 254800 17336644 18018267 135.8540002488 144.6600003088 9100 0 1 4550 4550
8	370035270 247066 18018609 18693215 144.6650002488 154.1390003088 8824 0 1 4412 4412
8	385852630 243822 18693475 19395949 154.1440002488 166.2570003088 8708 0 1 4354 4354
8	400892233 219724 19396041 20063099 166.2590002488 181.0530003088 7848 0 1 3924 3924
8	416749664 190848 20063349 20751251 181.0590002488 210.3570003088 6816 0 1 3408 3408
8	432110241 68096 20751401 21053950 210.3650002488 228.0940003088 2432 0 1 1216 1216
vector 9 Highway5G.router.ppp[1].queue queueLength:vector ETV
attr autoWarmupFilter false
attr interpolationmode sample-hold
attr recordingmode vector
attr source "warmup(atomic(constant0(packetPushEnded) + count(packetPushStarted) - count(packetPulled) - count(packetRemoved) - count(packetDropped)))"
attr title "queue length"
attr unit pk
9	685567 40 0 0 0 0 5 0 0 0 0
vector 10 Highway5G.router.ppp[1].queue queueBitLength:vector ETV
attr autoWarmupFilter false
attr interpolationmode sample-hold
attr recordingmode vector
attr source "warmup(atomic(constant0(packetPushEnded) + sum(packetLength(packetPushStarted)) - sum(packetLength(packetPulled)) - sum(packetLength(packetRemoved)) - sum(packetLength(packetDropped))))"
attr title "queue bit length"
attr unit b
10	685607 45 0 0 0 0 5 0 0 0 0
vector 11 Highway5G.router.ppp[1].ppp transmissionState:vector ETV
attr interpolationmode sample-hold
attr recordingmode vector
attr source transmissionStateChanged
attr title "tx state"
11	685652 9 0 0 0 0 1 0 0 0 0
vector 12 Highway5G.upf.ppp[0].queue queueLength:vector ETV
attr autoWarmupFilter false
attr interpolationmode sample-hold
attr recordingmode vector
attr source "warmup(atomic(constant0(packetPushEnded) + count(packetPushStarted) - count(packetPulled) - count(packetRemoved) - count(packetDropped)))"
attr title "queue length"
attr unit pk
12	685661 45 0 0 0 0 5 0 0 0 0
vector 13 Highway5G.upf.ppp[0].queue queueBitLength:vector ETV
attr autoWarmupFilter false
attr interpolationmode sample-hold
attr recordingmode vector
attr source "warmup(atomic(constant0(packetPushEnded) + sum(packetLength(packetPushStarted)) - sum(packetLength(packetPulled)) - sum(packetLength(packetRemoved)) - sum(packetLength(packetDropped))))"
attr title "queue bit length"
attr unit b
13	685706 45 0 0 0 0 5 0 0 0 0
vector 14 Highway5G.upf.ppp[0].ppp transmissionState:vector ETV
attr interpolationmode sample-hold
attr recordingmode vector
attr source transmissionStateChanged
attr title "tx state"
14	685751 9 0 0 0 0 1 0 0 0 0
vector 15 Highway5G.upf.ppp[1].queue queueLength:vector ETV
attr autoWarmupFilter false
attr interpolationmode sample-hold
attr recordingmode vector
attr source "warmup(atomic(constant0(packetPushEnded) + count(packetPushStarted) - count(packetPulled) - count(packetRemoved) - count(packetDropped)))"
attr title "queue length"
attr unit pk
15	685760 45 0 0 0 0 5 0 0 0 0
vector 16 Highway5G.upf.ppp[1].queue queueBitLength:vector ETV
attr autoWarmupFilter false
attr interpolationmode sample-hold
attr recordingmode vector
attr source "warmup(atomic(constant0(packetPushEnded) + sum(packetLength(packetPushStarted)) - sum(packetLength(packetPulled)) - sum(packetLength(packetRemoved)) - sum(packetLength(packetDropped))))"
attr title "queue bit length"
attr unit b
16	685805 45 0 0 0 0 5 0 0 0 0
vector 17 Highway5G.upf.ppp[1].ppp transmissionState:vector ETV
attr interpolationmode sample-hold
attr recordingmode vector
attr source transmissionStateChanged
attr title "tx state"
17	685850 9 0 0 0 0 1 0 0 0 0
vector 18 Highway5G.upf.ppp[2].queue queueLength:vector ETV
attr autoWarmupFilter false
attr interpolationmode sample-hold
attr recordingmode vector
attr source "warmup(atomic(constant0(packetPushEnded) + count(packetPushStarted) - count(packetPulled) - count(packetRemoved) - count(packetDropped)))"
attr title "queue length"
attr unit pk
18	685859 45 0 0 0 0 5 0 0 0 0
vector 19 Highway5G.upf.ppp[2].queue queueBitLength:vector ETV
attr autoWarmupFilter false
attr interpolationmode sample-hold
attr recordingmode vector
attr source "warmup(atomic(constant0(packetPushEnded) + sum(packetLength(packetPushStarted)) - sum(packetLength(packetPulled)) - sum(packetLength(packetRemoved)) - sum(packetLength(packetDropped))))"
attr title "queue bit length"
attr unit b
19	685904 45 0 0 0 0 5 0 0 0 0
vector 20 Highway5G.upf.ppp[2].ppp transmissionState:vector ETV
attr interpolationmode sample-hold
attr recordingmode vector
attr source transmissionStateChanged
attr title "tx state"
20	685949 9 0 0 0 0 1 0 0 0 0
vector 21 Highway5G.upf.ppp[3].queue queueLength:vector ETV
attr autoWarmupFilter false
attr interpolationmode sample-hold
attr recordingmode vector
attr source "warmup(atomic(constant0(packetPushEnded) + count(packetPushStarted) - count(packetPulled) - count(packetRemoved) - count(packetDropped)))"
attr title "queue length"
attr unit pk
21	685958 45 0 0 0 0 5 0 0 0 0
vector 22 Highway5G.upf.ppp[3].queue queueBitLength:vector ETV
attr autoWarmupFilter false
attr interpolationmode sample-hold
attr recordingmode vector
attr source "warmup(atomic(constant0(packetPushEnded) + sum(packetLength(packetPushStarted)) - sum(packetLength(packetPulled)) - sum(packetLength(packetRemoved)) - sum(packetLength(packetDropped))))"
attr title "queue bit length"
attr unit b
22	686003 45 0 0 0 0 5 0 0 0 0
vector 23 Highway5G.upf.ppp[3].ppp transmissionState:vector ETV
attr interpolationmode sample-hold
attr recordingmode vector
attr source transmissionStateChanged
attr title "tx state"
23	686048 9 0 0 0 0 1 0 0 0 0
vector 24 Highway5G.upf.pppIf.queue queueLength:vector ETV
attr autoWarmupFilter false
attr interpolationmode sample-hold
attr recordingmode vector
attr source "warmup(atomic(constant0(packetPushEnded) + count(packetPushStarted) - count(packetPulled) - count(packetRemoved) - count(packetDropped)))"
attr title "queue length"
attr unit pk
24	686057 118469 0 659571 0 16.5790001388 4678 0 2 904 1154
24	12986911 142080 659707 1357579 16.5810001388 25.9990001388 5363 0 2 1050 1236
24	26297674 151038 1358107 2055171 26.0030001388 32.8950001388 5594 0 3 1308 1758
24	39983923 167913 2055575 2754625 32.8990001388 38.7170001388 6219 0 3 2131 2933
24	53743337 170856 2754632 3438631 38.7170002276 43.4970001988 6328 0 3 2069 2701
24	67550108 176687 3438815 4146441 43.4980001388 47.9640001388 6544 0 2 1988 2392
24	81454655 169182 4146603 4856469 47.9650001388 52.3850002588 6266 0 2 1832 2174
24	95340929 182844 4856679 5560965 52.3860001388 56.3930002588 6772 0 3 2600 3318
24	109216462 189378 5561175 6256284 56.3940001388 60.0940002588 7014 0 3 3027 4133
24	123084171 177525 6256294 6975482 60.0940003164 63.9610003788 6575 0 3 2511 3469
24	136970780 176877 6975743 7666635 63.9620001388 67.6510001988 6551 0 3 2698 3964
24	150849729 175986 7666841 8368384 67.6520001388 71.4840001388 6518 0 5 2615 4093
24	164743557 169884 8368553 9055223 71.4850001388 75.2960001988 6292 0 4 2161 2871
24	178852059 180245 9055599 9746967 75.2980001388 79.1650003188 6676 0 2 2369 2903
24	192641953 168849 9747171 10483100 79.1660001388 83.7890001388 6112 0 3 1927 2493
24	206859662 173012 10483271 11188935 83.7900001388 88.0330002588 6179 0 2 1972 2454
24	221439410 169372 11189217 11872995 88.0350001388 92.1910003188 6049 0 3 1684 1910
24	235722273 182784 11873194 12536090 92.1920001388 96.2990001388 6528 0 2 2185 2645
24	250414577 173401 12536387 13246002 96.3010001388 101.1830001388 6145 0 2 1565 1821
24	264855124 170114 13246163 13919701 101.1840001388 105.9210001388 5866 0 2 1258 1380
24	279723920 173474 13919871 14601767 105.9220001388 110.8520001388 5982 0 3 1786 2572
24	295016323 170577 14601882 15308388 110.8530001388 116.6090001388 5882 0 3 1606 1948
24	309695001 153953 15308740 15960831 116.6120001388 122.3830001388 5309 0 4 968 1106
24	325011012 169127 15961153 16639081 122.3860001388 128.4910002276 5832 0 3 1164 1332
24	340755571 178727 16639700 17336418 128.4970001388 135.8510001388 6163 0 2 1525 1907
24	355558869 152801 17336639 18018262 135.8540001388 144.6600001388 5269 0 2 803 887
24	370282336 137718 18018605 18693210 144.6650001388 154.1390001388 4749 0 1 337 337
24	386096452 140330 18693471 19395944 154.1440001388 166.2570001388 4839 0 2 499 513
24	401111957 125473 19396037 20063094 166.2590001388 181.0530001388 4327 0 1 403 403
24	416940512 99325 20063345 20751246 181.0590001388 210.3570001388 3425 0 1 17 17
24	432178337 35264 20751397 21053945 210.3650001388 228.0940001388 1216 0 0 0 0
vector 25 Highway5G.upf.pppIf.queue queueBitLength:vector ETV
attr autoWarmupFilter false
attr interpolationmode sample-hold
attr recordingmode vector
attr source "warmup(atomic(constant0(packetPushEnded) + sum(packetLength(packetPushStarted)) - sum(packetLength(packetPulled)) - sum(packetLength(packetRemoved)) - sum(packetLength(packetDropped))))"
attr title "queue bit length"
attr unit b
25	804526 120152 0 659571 0 16.5790001388 4678 0 1088 491776 341510144
25	13128991 144087 659707 1357579 16.5810001388 25.9990001388 5363 0 1088 571200 365776896
25	26448712 153429 1358107 2055171 26.0030001388 32.8950001388 5594 0 1632 711552 520255488
25	40151836 171774 2055575 2754625 32.8990001388 38.7170001388 6219 0 1632 1159264 867980288
25	53914193 174678 2754632 3438631 38.7170002276 43.4970001988 6328 0 1632 1125536 799323136
25	67726795 180461 3438815 4146441 43.4980001388 47.9640001388 6544 0 1088 1081472 707878912
25	81623837 172675 4146603 4856469 47.9650001388 52.3850002588 6266 0 1088 996608 643364864
25	95523773 187685 4856679 5560965 52.3860001388 56.3930002588 6772 0 1632 1414400 981915648
25	109405840 194879 5561175 6256284 56.3940001388 60.0940002588 7014 0 1632 1646688 1223103488
25	123261696 182068 6256294 6975482 60.0940003164 63.9610003788 6575 0 1632 1365984 1026601984
25	137147657 181640 6975743 7666635 63.9620001388 67.6510001988 6551 0 1632 1467712 1173090304
25	151025715 180501 7666841 8368384 67.6520001388 71.4840001388 6518 0 2720 1422560 1211266048
25	164913441 173853 8368553 9055223 71.4850001388 75.2960001988 6292 0 2176 1175584 849632256
25	179032304 184716 9055599 9746967 75.2980001388 79.1650003188 6676 0 1088 1288736 859102208
25	192810802 172420 9747171 10483100 79.1660001388 83.7890001388 6112 0 1632 1048288 737768448
25	207032674 176715 10483271 11188935 83.7900001388 88.0330002588 6179 0 1088 1072768 726226944
25	221608782 172627 11189217 11872995 88.0350001388 92.1910003188 6049 0 1632 916096 565237760
25	235905057 186924 11873194 12536090 92.1920001388 96.2990001388 6528 0 1088 1188640 782750720
25	250587978 176403 12536387 13246002 96.3010001388 101.1830001388 6145 0 1088 851360 538899456
25	265025238 172569 13246163 13919701 101.1840001388 105.9210001388 5866 0 1088 684352 408391680
25	279897394 176653 13919871 14601767 105.9220001388 110.8520001388 5982 0 1632 971584 761147392
25	295186900 173618 14601882 15308388 110.8530001388 116.6090001388 5882 0 1632 873664 576483328
25	309848954 155822 15308740 15960831 116.6120001388 122.3830001388 5309 0 2176 526592 327305216
25	325180139 171371 15961153 16639081 122.3860001388 128.4910002276 5832 0 1632 633216 394186752
25	340934298 181586 16639700 17336418 128.4970001388 135.8510001388 6163 0 1088 829600 564349952
25	355711670 154365 17336639 18018262 135.8540001388 144.6600001388 5269 0 1088 436832 262495232
25	370420054 138392 18018605 18693210 144.6650001388 154.1390001388 4749 0 544 183328 99730432
25	386236782 141321 18693471 19395944 154.1440001388 166.2570001388 4839 0 1088 271456 151815168
25	401237430 126279 19396037 20063094 166.2590001388 181.0530001388 4327 0 544 219232 119262208
25	417039837 99359 20063345 20751246 181.0590001388 210.3570001388 3425 0 544 9248 5030912
25	432213601 35264 20751397 21053945 210.3650001388 228.0940001388 1216 0 0 0 0
vector 26 Highway5G.upf.pppIf.ppp transmissionState:vector ETV
attr interpolationmode sample-hold
attr recordingmode vector
attr source transmissionStateChanged
attr title "tx state"
26	924678 204269 0 659572 0 16.5790001988 8039 0 1 4019 4019
26	13273078 238598 659707 1357580 16.5810001388 25.9990001988 8998 0 1 4499 4499
26	26602141 251424 1358107 2055172 26.0030001388 32.8950001988 9312 0 1 4656 4656
26	40323610 258876 2055575 2754627 32.8990001388 38.7170001988 9588 0 1 4794 4794
26	54088871 260442 2754632 3438635 38.7170002276 43.4970002588 9646 0 1 4823 4823
26	67907256 267838 3438815 4146442 43.4980001388 47.9640001988 9920 0 1 4960 4960
26	81796512 257904 4146603 4856474 47.9650001388 52.3850003188 9552 0 1 4776 4776
26	95711458 263628 4856679 5560970 52.3860001388 56.3930003188 9764 0 1 4882 4882
26	109600719 266544 5561175 6256284 56.3940001388 60.0940002588 9872 0 1 4936 4936
26	123443764 259578 6256284 6975491 60.0940002588 63.9610004388 9614 0 1 4807 4807
26	137329297 259983 6975743 7666635 63.9620001388 67.6510001988 9629 0 1 4815 4815
26	151206216 260793 7666639 8368385 67.6510002588 71.4840001988 9659 0 1 4829 4829
26	165087294 255366 8368553 9055227 71.4850001388 75.2960002588 9458 0 1 4729 4729
26	179217020 261373 9055599 9746967 75.2980001388 79.1650003188 9681 0 1 4841 4841
26	192983222 256891 9746976 10483101 79.1650003788 83.7890001988 9295 0 1 4647 4647
26	207209389 262584 10483271 11188940 83.7900001388 88.0330003188 9378 0 1 4689 4689
26	221781409 256872 11189217 11873004 88.0350001388 92.1910003788 9174 0 1 4587 4587
26	236091981 268968 11873194 12536091 92.1920001388 96.2990001988 9606 0 1 4803 4803
26	250764381 273074 12536387 13246003 96.3010001388 101.1830001988 9672 0 1 4836 4836
26	265197807 274340 13246163 13919702 101.1840001388 105.9210001988 9460 0 1 4730 4730
26	280074047 273172 13919871 14601768 105.9220001388 110.8520001988 9420 0 1 4710 4710
26	295360518 267610 14601882 15308389 110.8530001388 116.6090001988 9228 0 1 4614 4614
26	310004776 257680 15308740 15960832 116.6120001388 122.3830001988 8886 0 1 4443 4443
26	325351510 280256 15961153 16639085 122.3860001388 128.4910002876 9664 0 1 4832 4832
26	341115884 291160 16639700 17336419 128.4970001388 135.8510001988 10040 0 1 5020 5020
26	355866035 263900 17336639 18018263 135.8540001388 144.6600001988 9100 0 1 4550 4550
26	370558446 255890 18018605 18693211 144.6650001388 154.1390001988 8824 0 1 4412 4412
26	386378103 252530 18693471 19395945 154.1440001388 166.2570001988 8708 0 1 4354 4354
26	401363709 227572 19396037 20063095 166.2590001388 181.0530001988 7848 0 1 3924 3924
26	417139196 197664 20063345 20751247 181.0590001388 210.3570001988 6816 0 1 3408 3408
26	432248865 70528 20751397 21053946 210.3650001388 228.0940001988 2432 0 1 1216 1216
vector 27 Highway5G.upf.udp passedUpPk:vector(count) ETV
attr interpolationmode none
attr recordingmode vector(count)
attr source packetSentToUpper
attr title "packets passed up, count"
27	1128947 113089 0 659569 0 16.5790001388 4020 0 4019 8078190 21646856470
27	13511676 132796 659705 1357577 16.5810001388 25.9990001388 4499 4020 8518 28204231 184401012389
27	26853565 142855 1358105 2055169 26.0030001388 32.8950001388 4656 8519 13174 50501304 556173587816
27	40582486 148614 2055573 2754623 32.8990001388 38.7170001388 4794 13175 17968 74649771 1171590391909
27	54349313 149513 2754630 3438626 38.7170002276 43.4970001388 4823 17969 22791 98292740 2012555156612
27	68175094 153759 3438811 4146439 43.4980001388 47.9640001388 4960 22792 27751 125346640 3177866273680
27	82054416 148056 4146601 4856458 47.9650001388 52.3850001388 4776 27752 32527 143946252 4347546511804
27	95975086 151342 4856675 5560959 52.3860001388 56.3930002276 4882 32528 37409 170716217 5979386468505
27	109867263 153047 5561173 6256278 56.3940001388 60.0940002276 4937 37410 42346 196877686 7861116218976
27	123703342 148986 6256292 6975470 60.0940003164 63.9610003164 4806 42347 47152 215066097 9633350910519
27	137589280 149265 6975739 7666630 63.9620001388 67.6510001388 4815 47153 51967 238631400 11835874853880
27	151467009 149699 7666839 8368382 67.6520001388 71.4840001388 4829 51968 56796 262610678 14290677941826
27	165342660 146599 8368549 9055218 71.4850001388 75.2960001388 4729 56797 61525 279772369 16560426181389
27	179478393 150064 9055595 9746956 75.2980001388 79.1650002276 4841 61526 66366 309562586 19804743306896
27	193240113 147020 9747169 10483098 79.1660001388 83.7890001388 4647 66367 71013 319202430 21934377428648
27	207471973 150048 10483269 11188924 83.7900001388 88.0330001388 4689 71014 75702 343975662 25241957923836
27	222038281 146784 11189215 11872984 88.0350001388 92.1910002276 4587 75703 80289 357767652 27912488542510
27	236360949 153696 11873192 12536088 92.1920001388 96.2990001388 4803 80290 85092 397164873 32851193803645
27	251037455 155881 12536385 13246000 96.3010001388 101.1830001388 4836 85093 89928 423200778 37043936601854
27	265472147 156090 13246159 13919699 101.1840001388 105.9210001388 4730 89929 94658 436548255 40299385023865
27	280347219 155426 13919869 14601765 105.9220001388 110.8520001388 4710 94659 99368 456933585 44337433607255
27	295628128 156244 14601880 15308386 110.8530001388 116.6090001388 4614 99369 103982 469130757 47707289901931
27	310262456 151054 15308738 15960829 116.6120001388 122.3830001388 4443 103983 108425 471864372 50121192590710
27	325631766 164287 15961151 16639079 122.3860001388 128.4910002276 4832 108426 113257 535586128 59374571357840
27	341407044 170680 16639696 17336416 128.4970001388 135.8510001388 5020 113258 118277 581152850 67289154729290
27	356129935 154700 17336635 18018260 135.8540001388 144.6600001388 4550 118278 122827 548513875 66132568613475
27	370814336 150005 18018603 18693208 144.6650001388 154.1390001388 4412 122828 127239 551647802 68981612356210
27	386630633 148069 18693469 19396035 154.1440001388 166.2590001388 4355 127240 131594 563611035 72947732402805
27	401591281 133372 19396335 20063092 166.2660001388 181.0530001388 3923 131595 135517 523940188 69980386972490
27	417336860 115872 20063343 20751244 181.0590001388 210.3570001388 3408 135518 138925 467650872 64175052639640
27	432319393 41344 20751395 21053943 210.3650001388 228.0940001388 1216 138926 140141 169672736 23675180545696
vector 28 Highway5G.upf.udp droppedPkWrongPort:vector(count) ETV
attr interpolationmode none
attr recordingmode vector(count)
attr source packetDropReasonIsNoPortFound(packetDropped)
attr title "packets dropped (wrong port), count"
28	1242036 9 0 0 0 0 1 0 0 0 0
vector 29 Highway5G.upf.udp droppedPkBadChecksum:vector(count) ETV
attr interpolationmode none
attr recordingmode vector(count)
attr source packetDropReasonIsIncorrectlyReceived(packetDropped)
attr title "packets dropped (checksum error), count"
29	1242045 9 0 0 0 0 1 0 0 0 0
vector 30 Highway5G.gNodeB1.pppIf.queue queueLength:vector ETV
attr autoWarmupFilter false
attr interpolationmode sample-hold
attr recordingmode vector
attr source "warmup(atomic(constant0(packetPushEnded) + count(packetPushStarted) - count(packetPulled) - count(packetRemoved) - count(packetDropped)))"
attr title "queue length"
attr unit pk
30	1242054 15846 0 659285 0 16.574 867 0 1 6 6
30	13644472 18340 660103 1357553 16.589 25.999 943 0 1 17 17
30	26996420 15163 1358088 2055142 26.003 32.895 758 0 1 2 2
30	40731100 23590 2055549 2754148 32.899 38.714 1170 0 1 28 28
30	54498826 25244 2755162 3438440 38.721 43.496 1250 0 1 35 35
30	68328853 19833 3438743 4144880 43.498 47.955 972 0 1 97 97
30	82202472 16782 4147912 4856210 47.973 52.384 837 0 2 9 11
30	96126428 16721 4857187 5560896 52.39 56.393 815 0 1 68 68
30	110020310 13120 5561116 6153267 56.394 59.568 626 0 1 86 86
30	123852328 6649 6334215 6975195 60.515 63.96 335 0 1 6 6
30	137738545 12299 6977231 7666575 63.97 67.651 622 0 1 3 3
30	151616708 10487 7667323 8366826 67.655 71.476 528 0 1 1 1
30	165489259 3640 8370443 8954943 71.496 74.731 182 0 0 0 0
30	179628457 1249 9160528 9744386 75.88 79.15 64 0 0 0 0
30	193387133 2834 9747691 10390790 79.17 83.212 141 0 0 0 0
30	207622021 3339 10491574 11024412 83.842 87.008 159 0 0 0 0
30	222185065 2169 11210413 11870375 88.163 92.176 103 0 1 1 1
30	236514645 5675 11873724 12534218 92.196 96.286 270 0 1 1 1
30	251193336 8918 12537171 13246093 96.306 101.184 419 0 0 0 0
30	265628237 7772 13248650 13919322 101.202 105.919 353 0 2 4 6
30	280502645 5504 13922031 14600213 105.938 110.84 255 0 0 0 0
30	295784372 8117 14602674 15306971 110.86 116.598 372 0 1 2 2
30	310413510 2258 15309431 15857395 116.618 121.426 104 0 0 0 0
30	325796053 4970 16025034 16638395 122.944 128.485 226 0 0 0 0
30	341577724 7172 16640496 17266584 128.505 135.005 326 0 0 0 0
vector 31 Highway5G.gNodeB1.pppIf.queue queueBitLength:vector ETV
attr autoWarmupFilter false
attr interpolationmode sample-hold
attr recordingmode vector
attr source "warmup(atomic(constant0(packetPushEnded) + sum(packetLength(packetPushStarted)) - sum(packetLength(packetPulled)) - sum(packetLength(packetRemoved)) - sum(packetLength(packetDropped))))"
attr title "queue bit length"
attr unit b
31	1257900 15858 0 659285 0 16.574 867 0 832 4992 4153344
31	13662812 18374 660103 1357553 16.589 25.999 943 0 832 14144 11767808
31	27011583 15167 1358088 2055142 26.003 32.895 758 0 832 1664 1384448
31	40754690 23646 2055549 2754148 32.899 38.714 1170 0 832 23296 19382272
31	54524070 25314 2755162 3438440 38.721 43.496 1250 0 832 29120 24227840
31	68348686 20027 3438743 4144880 43.498 47.955 972 0 832 80704 67145728
31	82219254 16799 4147912 4856210 47.973 52.384 837 0 1664 7488 7614464
31	96143149 16857 4857187 5560896 52.39 56.393 815 0 832 56576 47071232
31	110033430 13292 5561116 6153267 56.394 59.568 626 0 832 71552 59531264
31	123858977 6661 6334215 6975195 60.515 63.96 335 0 832 4992 4153344
31	137750844 12305 6977231 7666575 63.97 67.651 622 0 832 2496 2076672
31	151627195 10489 7667323 8366826 67.655 71.476 528 0 832 832 692224
31	165492899 3640 8370443 8954943 71.496 74.731 182 0 0 0 0
31	179629706 1249 9160528 9744386 75.88 79.15 64 0 0 0 0
31	193389967 2834 9747691 10390790 79.17 83.212 141 0 0 0 0
31	207625360 3339 10491574 11024412 83.842 87.008 159 0 0 0 0
31	222187234 2171 11210413 11870375 88.163 92.176 103 0 832 832 692224
31	236520320 5677 11873724 12534218 92.196 96.286 270 0 832 832 692224
31	251202254 8918 12537171 13246093 96.306 101.184 419 0 0 0 0
31	265636009 7779 13248650 13919322 101.202 105.919 353 0 1664 3328 4153344
31	280508149 5504 13922031 14600213 105.938 110.84 255 0 0 0 0
31	295792489 8121 14602674 15306971 110.86 116.598 372 0 832 1664 1384448
31	310415768 2258 15309431 15857395 116.618 121.426 104 0 0 0 0
31	325801023 4970 16025034 16638395 122.944 128.485 226 0 0 0 0
31	341584896 7172 16640496 17266584 128.505 135.005 326 0 0 0 0
vector 32 Highway5G.gNodeB1.pppIf.ppp transmissionState:vector ETV
attr interpolationmode sample-hold
attr recordingmode vector
attr source transmissionStateChanged
attr title "tx state"
32	1273758 37410 0 659304 0 16.5740000888 1713 0 1 856 856
32	13681186 42448 660103 1357574 16.589 25.9990000888 1852 0 1 926 926
32	27026750 35536 1358088 2055166 26.003 32.8950000888 1512 0 1 756 756
32	40778336 53864 2055549 2754204 32.899 38.7140000888 2284 0 1 1142 1142
32	54549384 57349 2755162 3438481 38.721 43.4960000888 2430 0 1 1215 1215
32	68368713 41591 3438743 4144912 43.498 47.9550000888 1750 0 1 875 875
32	82236053 39055 4147912 4856276 47.973 52.3840000888 1660 0 1 830 830
32	96160006 35530 4857187 5560943 52.39 56.3930000888 1494 0 1 747 747
32	110046722 25980 5561116 6153359 56.394 59.5680000888 1080 0 1 540 540
32	123865638 15412 6334215 6975241 60.515 63.9600000888 658 0 1 329 329
32	137763149 28952 6977231 7666623 63.97 67.6510000888 1238 0 1 619 619
32	151637684 24696 7667323 8366903 67.655 71.4760000888 1054 0 1 527 527
32	165496539 8554 8370443 8954974 71.496 74.7310000888 364 0 1 182 182
32	179630955 2977 9160528 9744442 75.88 79.1500000888 128 0 1 64 64
32	193392801 6703 9747691 10390848 79.17 83.2120000888 282 0 1 141 141
32	207628699 7791 10491574 11024467 83.842 87.0080000888 318 0 1 159 159
32	222189405 5004 11210413 11870431 88.163 92.1760000888 204 0 1 102 102
32	236525997 13187 11873724 12534260 92.196 96.2860000888 538 0 1 269 269
32	251211172 20740 12537171 13246093 96.306 101.184 837 0 1 419 419
32	265643788 17938 13246153 13919364 101.1840000888 105.9190000888 703 0 1 351 351
32	280513653 12899 13922031 14600278 105.938 110.8400000888 510 0 1 255 255
32	295800610 18803 14602674 15307023 110.86 116.5980000888 740 0 1 370 370
32	310418026 5274 15309431 15857450 116.618 121.4260000888 208 0 1 104 104
32	325805993 11524 16025034 16638433 122.944 128.4850000888 452 0 1 226 226
32	341592068 16626 16640496 17266613 128.505 135.0050000888 652 0 1 326 326
vector 33 Highway5G.gNodeB1.x2ppp[0].queue queueLength:vector ETV
attr autoWarmupFilter false
attr interpolationmode sample-hold
attr recordingmode vector
attr source "warmup(atomic(constant0(packetPushEnded) + count(packetPushStarted) - count(packetPulled) - count(packetRemoved) - count(packetDropped)))"
attr title "queue length"
attr unit pk
33	1311168 122 0 297 0 0.0000004836 9 0 0 0 0
33	27062286 103 1362064 1873891 26.0500101068 31.2000101068 4 0 0 0 0
33	54606733 27 2962164 2962164 40.2500101068 40.2500101068 1 0 0 0 0
33	68410304 49 3824003 3865105 46.00001 46.2500101068 2 0 0 0 0
33	82275108 191 4152761 4669278 48.00001 51.2500101068 8 0 0 0 0
33	96195536 71 5119514 5127868 54.00001 54.0500101068 3 0 0 0 0
33	110072702 76 5705371 6050856 57.2500101068 59.0500101068 3 0 0 0 0
33	137792101 27 7179440 7179440 65.0500101068 65.0500101068 1 0 0 0 0
33	151662380 98 7905694 8326758 69.00001 71.2500101068 4 0 0 0 0
33	165505093 76 8472877 8692627 72.0500101068 73.2500101068 3 0 0 0 0
33	179633932 76 9232443 9581678 76.2500101068 78.2000101068 3 0 0 0 0
33	207636490 51 11023168 11063601 87.00001 87.2500101068 2 0 0 0 0
33	222194409 125 11191632 11848890 88.05001 92.05001 5 0 0 0 0
33	236539184 79 11874492 12203695 92.2000101068 94.2000101068 3 0 0 0 0
33	251231912 56 12811625 12959906 98.2000101068 99.2000101068 2 0 0 0 0
33	265661726 106 13367553 13530984 102.05001 103.2500101068 4 0 0 0 0
33	280526552 29 14247071 14247071 108.2500101068 108.2500101068 1 0 0 0 0
33	295819413 82 14880258 15265161 113.05001 116.2500101068 3 0 0 0 0
33	310423300 135 15355343 15940237 117.00001 122.2000101068 5 0 1 1 1
33	325817517 29 16404953 16404953 126.2000101068 126.2000101068 1 0 0 0 0
33	341608694 82 16909375 17287616 131.2500101068 135.2500101068 3 0 0 0 0
33	370964341 29 18055980 18055980 145.2000101068 145.2000101068 1 0 0 0 0
33	401724653 29 19663086 19663086 172.2500101068 172.2500101068 1 0 0 0 0
vector 34 Highway5G.gNodeB1.x2ppp[0].queue queueBitLength:vector ETV
attr autoWarmupFilter false
attr interpolationmode sample-hold
attr recordingmode vector
attr source "warmup(atomic(constant0(packetPushEnded) + sum(packetLength(packetPushStarted)) - sum(packetLength(packetPulled)) - sum(packetLength(packetRemoved)) - sum(packetLength(packetDropped))))"
attr title "queue bit length"
attr unit b
34	1311290 122 0 297 0 0.0000004836 9 0 0 0 0
34	27062389 103 1362064 1873891 26.0500101068 31.2000101068 4 0 0 0 0
34	54606760 27 2962164 2962164 40.2500101068 40.2500101068 1 0 0 0 0
34	68410353 49 3824003 3865105 46.00001 46.2500101068 2 0 0 0 0
34	82275299 191 4152761 4669278 48.00001 51.2500101068 8 0 0 0 0
34	96195607 71 5119514 5127868 54.00001 54.0500101068 3 0 0 0 0
34	110072778 76 5705371 6050856 57.2500101068 59.0500101068 3 0 0 0 0
34	137792128 27 7179440 7179440 65.0500101068 65.0500101068 1 0 0 0 0
34	151662478 98 7905694 8326758 69.00001 71.2500101068 4 0 0 0 0
34	165505169 76 8472877 8692627 72.0500101068 73.2500101068 3 0 0 0 0
34	179634008 76 9232443 9581678 76.2500101068 78.2000101068 3 0 0 0 0
34	207636541 51 11023168 11063601 87.00001 87.2500101068 2 0 0 0 0
34	222194534 125 11191632 11848890 88.05001 92.05001 5 0 0 0 0
34	236539263 79 11874492 12203695 92.2000101068 94.2000101068 3 0 0 0 0
34	251231968 56 12811625 12959906 98.2000101068 99.2000101068 2 0 0 0 0
34	265661832 106 13367553 13530984 102.05001 103.2500101068 4 0 0 0 0
34	280526581 29 14247071 14247071 108.2500101068 108.2500101068 1 0 0 0 0
34	295819495 82 14880258 15265161 113.05001 116.2500101068 3 0 0 0 0
34	310423435 137 15355343 15940237 117.00001 122.2000101068 5 0 512 512 262144
34	325817546 29 16404953 16404953 126.2000101068 126.2000101068 1 0 0 0 0
34	341608776 82 16909375 17287616 131.2500101068 135.2500101068 3 0 0 0 0
34	370964370 29 18055980 18055980 145.2000101068 145.2000101068 1 0 0 0 0
34	401724682 29 19663086 19663086 172.2500101068 172.2500101068 1 0 0 0 0
vector 35 Highway5G.gNodeB1.x2ppp[0].ppp transmissionState:vector ETV
attr interpolationmode sample-hold
attr recordingmode vector
attr source transmissionStateChanged
attr title "tx state"
35	1311412 173 0 318 0 0.000000518 9 0 1 4 4
35	27062492 211 1362064 1873892 26.0500101068 31.2000101508 8 0 1 4 4
35	54606787 54 2962164 2962166 40.2500101068 40.2500101508 2 0 1 1 1
35	68410402 103 3824003 3865106 46.00001 46.2500101508 4 0 1 2 2
35	82275490 407 4152761 4669279 48.00001 51.2500101508 16 0 1 8 8
35	96195678 152 5119514 5127876 54.00001 54.0500101508 6 0 1 3 3
35	110072854 157 5705371 6050864 57.2500101068 59.0500101508 6 0 1 3 3
35	137792155 54 7179440 7179449 65.0500101068 65.0500101508 2 0 1 1 1
35	151662576 206 7905694 8326759 69.00001 71.2500101508 8 0 1 4 4
35	165505245 157 8472877 8692628 72.0500101068 73.2500101508 6 0 1 3 3
35	179634084 157 9232443 9581679 76.2500101068 78.2000101508 6 0 1 3 3
35	207636592 107 11023168 11063602 87.00001 87.2500101508 4 0 1 2 2
35	222194659 265 11191632 11848894 88.05001 92.0500100568 10 0 1 5 5
35	236539342 163 11874492 12203696 92.2000101068 94.2000101508 6 0 1 3 3
35	251232024 112 12811625 12959907 98.2000101068 99.2000101508 4 0 1 2 2
35	265661938 222 13367553 13530985 102.05001 103.2500101508 8 0 1 4 4
35	280526610 58 14247071 14247072 108.2500101068 108.2500101508 2 0 1 1 1
35	295819577 169 14880258 15265162 113.05001 116.2500101508 6 0 1 3 3
35	310423572 227 15355343 15940238 117.00001 122.2000101508 8 0 1 4 4
35	325817575 58 16404953 16404954 126.2000101068 126.2000101508 2 0 1 1 1
35	341608858 169 16909375 17287617 131.2500101068 135.2500101508 6 0 1 3 3
35	370964399 58 18055980 18055981 145.2000101068 145.2000101508 2 0 1 1 1
35	401724711 58 19663086 19663087 172.2500101068 172.2500101508 2 0 1 1 1
vector 36 Highway5G.gNodeB1.x2ppp[1].queue queueLength:vector ETV
attr autoWarmupFilter false
attr interpolationmode sample-hold
attr recordingmode vector
attr source "warmup(atomic(constant0(packetPushEnded) + count(packetPushStarted) - count(packetPulled) - count(packetRemoved) - count(packetDropped)))"
attr title "queue length"
attr unit pk
36	1311585 122 0 301 0 0.0000004836 9 0 0 0 0
36	27062703 54 1357862 1560229 26.0000101068 28.2000101068 2 0 0 0 0
36	54606841 27 2955149 2955149 40.2000101068 40.2000101068 1 0 0 0 0
36	110073011 54 5696752 6090353 57.2000101068 59.2500101068 2 0 0 0 0
36	137792209 27 7179442 7179442 65.0500101068 65.0500101068 1 0 0 0 0
36	165505402 27 8472879 8472879 72.0500101068 72.0500101068 1 0 0 0 0
36	179634241 27 9222534 9222534 76.2000101068 76.2000101068 1 0 0 0 0
36	251232136 56 12819093 12967499 98.2500101068 99.2500101068 2 0 0 0 0
36	280526668 29 14239724 14239724 108.2000101068 108.2000101068 1 0 0 0 0
36	295819746 29 15259220 15259220 116.2000101068 116.2000101068 1 0 0 0 0
36	310423799 29 15945871 15945871 122.2500101068 122.2500101068 1 0 0 0 0
36	325817633 29 16410024 16410024 126.2500101068 126.2500101068 1 0 0 0 0
36	341609027 29 16904377 16904377 131.2000101068 131.2000101068 1 0 0 0 0
36	370964457 29 18059769 18059769 145.2500101068 145.2500101068 1 0 0 0 0
36	401724769 29 19660578 19660578 172.2000101068 172.2000101068 1 0 0 0 0
vector 37 Highway5G.gNodeB1.x2ppp[1].queue queueBitLength:vector ETV
attr autoWarmupFilter false
attr interpolationmode sample-hold
attr recordingmode vector
attr source "warmup(atomic(constant0(packetPushEnded) + sum(packetLength(packetPushStarted)) - sum(packetLength(packetPulled)) - sum(packetLength(packetRemoved)) - sum(packetLength(packetDropped))))"
attr title "queue bit length"
attr unit b
37	1311707 122 0 301 0 0.0000004836 9 0 0 0 0
37	27062757 54 1357862 1560229 26.0000101068 28.2000101068 2 0 0 0 0
37	54606868 27 2955149 2955149 40.2000101068 40.2000101068 1 0 0 0 0
37	110073065 54 5696752 6090353 57.2000101068 59.2500101068 2 0 0 0 0
37	137792236 27 7179442 7179442 65.0500101068 65.0500101068 1 0 0 0 0
37	165505429 27 8472879 8472879 72.0500101068 72.0500101068 1 0 0 0 0
37	179634268 27 9222534 9222534 76.2000101068 76.2000101068 1 0 0 0 0
37	251232192 56 12819093 12967499 98.2500101068 99.2500101068 2 0 0 0 0
37	280526697 29 14239724 14239724 108.2000101068 108.2000101068 1 0 0 0 0
37	295819775 29 15259220 15259220 116.2000101068 116.2000101068 1 0 0 0 0
37	310423828 29 15945871 15945871 122.2500101068 122.2500101068 1 0 0 0 0
37	325817662 29 16410024 16410024 126.2500101068 126.2500101068 1 0 0 0 0
37	341609056 29 16904377 16904377 131.2000101068 131.2000101068 1 0 0 0 0
37	370964486 29 18059769 18059769 145.2500101068 145.2500101068 1 0 0 0 0
37	401724798 29 19660578 19660578 172.2000101068 172.2000101068 1 0 0 0 0
vector 38 Highway5G.gNodeB1.x2ppp[1].ppp transmissionState:vector ETV
attr interpolationmode sample-hold
attr recordingmode vector
attr source transmissionStateChanged
attr title "tx state"
38	1311829 173 0 320 0 0.000000518 9 0 1 4 4
38	27062811 108 1357862 1560230 26.0000101068 28.2000101508 4 0 1 2 2
38	54606895 54 2955149 2955151 40.2000101068 40.2000101508 2 0 1 1 1
38	110073119 108 5696752 6090354 57.2000101068 59.2500101508 4 0 1 2 2
38	137792263 54 7179442 7179450 65.0500101068 65.0500101508 2 0 1 1 1
38	165505456 54 8472879 8472887 72.0500101068 72.0500101508 2 0 1 1 1
38	179634295 54 9222534 9222535 76.2000101068 76.2000101508 2 0 1 1 1
38	251232248 112 12819093 12967500 98.2500101068 99.2500101508 4 0 1 2 2
38	280526726 58 14239724 14239725 108.2000101068 108.2000101508 2 0 1 1 1
38	295819804 58 15259220 15259221 116.2000101068 116.2000101508 2 0 1 1 1
38	310423857 58 15945871 15945872 122.2500101068 122.2500101508 2 0 1 1 1
38	325817691 58 16410024 16410025 126.2500101068 126.2500101508 2 0 1 1 1
38	341609085 58 16904377 16904378 131.2000101068 131.2000101508 2 0 1 1 1
38	370964515 58 18059769 18059770 145.2500101068 145.2500101508 2 0 1 1 1
38	401724827 58 19660578 19660579 172.2000101068 172.2000101508 2 0 1 1 1
vector 39 Highway5G.gNodeB1.pppMEHostIf.queue queueLength:vector ETV
attr autoWarmupFilter false
attr interpolationmode sample-hold
attr recordingmode vector
attr source "warmup(atomic(constant0(packetPushEnded) + count(packetPushStarted) - count(packetPulled) - count(packetRemoved) - count(packetDropped)))"
attr title "queue length"
attr unit pk
39	1312002 45 0 0 0 0 5 0 0 0 0
vector 40 Highway5G.gNodeB1.pppMEHostIf.queue queueBitLength:vector ETV
attr autoWarmupFilter false
attr interpolationmode sample-hold
attr recordingmode vector
attr source "warmup(atomic(constant0(packetPushEnded) + sum(packetLength(packetPushStarted)) - sum(packetLength(packetPulled)) - sum(packetLength(packetRemoved)) - sum(packetLength(packetDropped))))"
attr title "queue bit length"
attr unit b
40	1312047 45 0 0 0 0 5 0 0 0 0
vector 41 Highway5G.gNodeB1.pppMEHostIf.ppp transmissionState:vector ETV
attr interpolationmode sample-hold
attr recordingmode vector
attr source transmissionStateChanged
attr title "tx state"
41	1312092 9 0 0 0 0 1 0 0 0 0
vector 42 Highway5G.gNodeB1.udp passedUpPk:vector(count) ETV
attr interpolationmode none
attr recordingmode vector(count)
attr source packetSentToUpper
attr title "packets passed up, count"
42	1312101 9 0 0 0 0 1 0 0 0 0
vector 43 Highway5G.gNodeB1.udp droppedPkWrongPort:vector(count) ETV
attr interpolationmode none
attr recordingmode vector(count)
attr source packetDropReasonIsNoPortFound(packetDropped)
attr title "packets dropped (wrong port), count"
43	1312110 9 0 0 0 0 1 0 0 0 0
vector 44 Highway5G.gNodeB1.udp droppedPkBadChecksum:vector(count) ETV
attr interpolationmode none
attr recordingmode vector(count)
attr source packetDropReasonIsIncorrectlyReceived(packetDropped)
attr title "packets dropped (checksum error), count"
44	1312119 9 0 0 0 0 1 0 0 0 0
vector 45 Highway5G.gNodeB2.pppIf.queue queueLength:vector ETV
attr autoWarmupFilter false
attr interpolationmode sample-hold
attr recordingmode vector
attr source "warmup(atomic(constant0(packetPushEnded) + count(packetPushStarted) - count(packetPulled) - count(packetRemoved) - count(packetDropped)))"
attr title "queue length"
attr unit pk
45	1312128 37077 0 659557 0 16.579 2004 0 2 72 74
45	13723634 32293 659690 1357431 16.581 25.998 1601 0 1 155 155
45	27062919 40718 1358250 2054436 26.005 32.888 1975 0 1 180 180
45	40832200 34123 2056295 2754620 32.906 38.7170000888 1675 0 2 143 161
45	54606949 28812 2754978 3438588 38.72 43.497 1407 0 2 174 200
45	68410505 30217 3439077 4146398 43.5 47.964 1454 0 2 264 318
45	82275897 28107 4146575 4856401 47.965 52.385 1363 0 2 256 364
45	96195830 28265 4856793 5559421 52.387 56.384 1409 0 1 48 48
45	110073227 42421 5561646 6255820 56.397 60.092 1988 0 2 549 669
45	123881050 38142 6256599 6975373 60.096 63.961 1824 0 2 298 344
45	137792317 49799 6975659 7666418 63.962 67.6500000888 2352 0 3 505 571
45	151662782 44534 7666788 8368322 67.652 71.484 2107 0 2 471 571
45	165505510 43796 8368510 9055160 71.485 75.296 2076 0 2 398 450
45	179634349 50219 9056569 9746934 75.304 79.1650000888 2414 0 3 617 1003
45	193399504 44309 9747109 10483070 79.166 83.789 2082 0 2 244 264
45	207636699 43445 10483510 11188869 83.792 88.033 1994 0 2 282 336
45	222194924 59350 11189515 11872911 88.037 92.191 2663 0 2 545 577
45	236539505 47112 11873426 12536356 92.194 96.301 2121 0 2 445 515
45	251232360 37676 12536382 13245674 96.3010000888 101.181 1732 0 1 158 158
45	265662160 34227 13246914 13919866 101.19 105.9220000888 1524 0 1 148 148
45	280526784 39207 13920955 14600224 105.93 110.84 1720 0 4 464 670
45	295819862 25927 14602537 15308355 110.859 116.609 1189 0 0 0 0
45	310423915 46434 15309026 15959591 116.615 122.3720001776 2002 0 3 569 781
45	325817749 30154 15961232 16638406 122.387 128.485 1321 0 2 201 239
45	341609143 36598 16639662 17336400 128.497 135.851 1627 0 2 157 159
45	356284635 47456 17336602 18018228 135.854 144.66 2155 0 1 62 62
45	370964573 35559 18019106 18692957 144.672 154.1350001776 1556 0 15 465 2557
45	386778702 41613 18694132 19395928 154.155 166.257 1817 0 3 395 551
45	401724885 27970 19396304 20062733 166.266 181.045 1264 0 1 25 25
45	417452732 4122 20063580 20357600 181.065 190.086 189 0 0 0 0
vector 46 Highway5G.gNodeB2.pppIf.queue queueBitLength:vector ETV
attr autoWarmupFilter false
attr interpolationmode sample-hold
attr recordingmode vector
attr source "warmup(atomic(constant0(packetPushEnded) + sum(packetLength(packetPushStarted)) - sum(packetLength(packetPulled)) - sum(packetLength(packetRemoved)) - sum(packetLength(packetDropped))))"
attr title "queue bit length"
attr unit b
46	1349205 37220 0 659557 0 16.579 2004 0 1664 59904 51224576
46	13755927 32603 659690 1357431 16.581 25.998 1601 0 832 128960 107294720
46	27103637 41078 1358250 2054436 26.005 32.888 1975 0 832 149760 124600320
46	40866323 34400 2056295 2754620 32.906 38.7170000888 1675 0 1664 118976 111448064
46	54635761 29147 2754978 3438588 38.72 43.497 1407 0 1664 144768 138444800
46	68440722 30718 3439077 4146398 43.5 47.964 1454 0 1664 219648 220127232
46	82304004 28565 4146575 4856401 47.965 52.385 1363 0 1664 212992 251969536
46	96224095 28361 4856793 5559421 52.387 56.384 1409 0 832 39936 33226752
46	110115648 43459 5561646 6255820 56.397 60.092 1988 0 1664 456768 463097856
46	123919192 38715 6256599 6975373 60.096 63.961 1824 0 1664 247936 238125056
46	137842116 50776 6975659 7666418 63.962 67.6500000888 2352 0 2496 420160 395259904
46	151707316 45426 7666788 8368322 67.652 71.484 2107 0 1664 391872 395259904
46	165549306 44566 8368510 9055160 71.485 75.296 2076 0 1664 331136 311500800
46	179684568 51260 9056569 9746934 75.304 79.1650000888 2414 0 2496 513344 694300672
46	193443813 44787 9747109 10483070 79.166 83.789 2082 0 1664 203008 182747136
46	207680144 43982 10483510 11188869 83.792 88.033 1994 0 1664 234624 232587264
46	222254274 60424 11189515 11872911 88.037 92.191 2663 0 1664 453440 399413248
46	236586617 47967 11873426 12536356 92.194 96.301 2121 0 1664 370240 356495360
46	251270036 37992 12536382 13245674 96.3010000888 101.181 1732 0 832 131456 109371392
46	265696387 34523 13246914 13919866 101.19 105.9220000888 1524 0 832 123136 102449152
46	280565991 40033 13920955 14600224 105.93 110.84 1720 0 3328 386048 463790080
46	295845789 25927 14602537 15308355 110.859 116.609 1189 0 0 0 0
46	310470349 47466 15309026 15959591 116.615 122.3720001776 2002 0 2496 473408 540626944
46	325847903 30537 15961232 16638406 122.387 128.485 1321 0 1664 167232 165441536
46	341645741 36911 16639662 17336400 128.497 135.851 1627 0 1664 130624 110063616
46	356332091 47580 17336602 18018228 135.854 144.66 2155 0 832 51584 42917888
46	371000132 36087 18019106 18692957 144.672 154.1350001776 1556 0 12480 386880 1770016768
46	386820315 42325 18694132 19395928 154.155 166.257 1817 0 2496 328640 381415424
46	401752855 28020 19396304 20062733 166.266 181.045 1264 0 832 20800 17305600
46	417456854 4122 20063580 20357600 181.065 190.086 189 0 0 0 0
vector 47 Highway5G.gNodeB2.pppIf.ppp transmissionState:vector ETV
attr interpolationmode sample-hold
attr recordingmode vector
attr source transmissionStateChanged
attr title "tx state"
47	1386425 84653 0 659566 0 16.5790000888 3859 0 1 1929 1929
47	13788530 67648 659690 1357461 16.581 25.9980000888 2892 0 1 1446 1446
47	27144715 85583 1358250 2054490 26.005 32.8880000888 3590 0 1 1795 1795
47	40900723 73473 2056295 2754626 32.906 38.7170001776 3100 0 1 1550 1550
47	54664908 59913 2754978 3438619 38.72 43.4970000888 2518 0 1 1259 1259
47	68471440 59606 3439077 4146436 43.5 47.9640000888 2488 0 1 1244 1244
47	82332569 57953 4146575 4856447 47.965 52.3850000888 2430 0 1 1215 1215
47	96252456 64052 4856793 5559469 52.387 56.3840000888 2722 0 1 1361 1361
47	110159107 76058 5561646 6255885 56.397 60.0920000888 3118 0 1 1559 1559
47	123957907 75548 6256599 6975434 60.096 63.9610000888 3144 0 1 1572 1572
47	137892892 92607 6975659 7666430 63.962 67.6500001776 3818 0 1 1909 1909
47	151752742 84003 7666788 8368379 67.652 71.4840000888 3472 0 1 1736 1736
47	165593872 83592 8368510 9055211 71.485 75.2960000888 3460 0 1 1730 1730
47	179735828 99260 9056569 9746952 75.304 79.1650001776 4134 0 1 2067 2067
47	193488600 91104 9747109 10483095 79.166 83.7890000888 3716 0 1 1858 1858
47	207724126 88107 10483510 11188913 83.792 88.0330000888 3532 0 1 1766 1766
47	222314698 108779 11189515 11872962 88.037 92.1910000888 4300 0 1 2150 2150
47	236634584 88097 11873426 12536355 92.194 96.301 3491 0 1 1746 1746
47	251308028 78793 12536382 13245699 96.3010000888 101.1810000888 3149 0 1 1574 1574
47	265730910 70900 13246914 13919866 101.19 105.9220000888 2751 0 1 1376 1376
47	280606024 75383 13919872 14600279 105.9220001776 110.8400000888 2893 0 1 1446 1446
47	295871716 60408 14602537 15308383 110.859 116.6090000888 2378 0 1 1189 1189
47	310517815 86081 15309026 15959601 116.615 122.3720002664 3282 0 1 1641 1641
47	325878440 60150 15961232 16638434 122.387 128.4850000888 2316 0 1 1158 1158
47	341682652 75905 16639662 17336413 128.497 135.8510000888 2944 0 1 1472 1472
47	356379671 106848 17336602 18018257 135.854 144.6600000888 4186 0 1 2093 2093
47	371036219 70826 18019106 18692967 144.672 154.1350002664 2726 0 1 1363 1363
47	386862640 81097 18694132 19395939 154.155 166.2570000888 3116 0 1 1558 1558
47	401780875 63352 19396304 20062742 166.266 181.0450000888 2478 0 1 1239 1239
47	417460976 9603 20063580 20357613 181.065 190.0860000888 378 0 1 189 189
vector 48 Highway5G.gNodeB2.x2ppp[0].queue queueLength:vector ETV
attr autoWarmupFilter false
attr interpolationmode sample-hold
attr recordingmode vector
attr source "warmup(atomic(constant0(packetPushEnded) + count(packetPushStarted) - count(packetPulled) - count(packetRemoved) - count(packetDropped)))"
attr title "queue length"
attr unit pk
48	1471078 122 0 293 0 0.0000004836 9 0 0 0 0
48	27230298 93 1362055 1857401 26.05001 31.0500101068 4 0 0 0 0
48	54724821 22 2933766 2933766 40.05001 40.05001 1 0 0 0 0
48	68531046 49 3832185 3857004 46.05001 46.2000101068 2 0 0 0 0
48	82390522 191 4152760 4660797 48.00001 51.2000101068 8 0 0 0 0
48	96316508 71 5119513 5127866 54.00001 54.0500101068 3 0 0 0 0
48	110235165 93 5671050 6080444 57.05001 59.2000101068 4 0 0 0 0
48	137985499 44 7169990 7179423 65.00001 65.05001 2 0 0 0 0
48	151836745 98 7913983 8317725 69.05001 71.2000101068 4 0 0 0 0
48	165677464 93 8463695 8683392 72.00001 73.2000101068 4 0 0 0 0
48	179835088 71 9193520 9590173 76.05001 78.2500101068 3 0 0 0 0
48	207812233 74 11031124 11183542 87.05001 88.00001 3 0 0 0 0
48	222423477 102 11224839 11840638 88.2500101068 92.00001 4 0 0 0 0
48	236722681 79 11882869 12211640 92.2500101068 94.2500101068 3 0 0 0 0
48	251386821 46 12781639 12930287 98.00001 99.00001 2 0 0 0 0
48	265801810 106 13360595 13523951 102.00001 103.2000101068 4 0 0 0 0
48	280681407 24 14218427 14218427 108.05001 108.05001 1 0 0 0 0
48	295932124 77 14874271 15241557 113.00001 116.05001 3 0 0 0 0
48	310603896 130 15355361 15919325 117.0000101636 122.00001 5 0 1 1 1
48	325938590 24 16383707 16383707 126.00001 126.00001 1 0 0 0 0
48	341758557 77 16889443 17283494 131.05001 135.2000101068 3 0 0 0 0
48	371107045 24 18041673 18041673 145.00001 145.00001 1 0 0 0 0
48	401844227 24 19653045 19653045 172.05001 172.05001 1 0 0 0 0
vector 49 Highway5G.gNodeB2.x2ppp[0].queue queueBitLength:vector ETV
attr autoWarmupFilter false
attr interpolationmode sample-hold
attr recordingmode vector
attr source "warmup(atomic(constant0(packetPushEnded) + sum(packetLength(packetPushStarted)) - sum(packetLength(packetPulled)) - sum(packetLength(packetRemoved)) - sum(packetLength(packetDropped))))"
attr title "queue bit length"
attr unit b
49	1471200 122 0 293 0 0.0000004836 9 0 0 0 0
49	27230391 93 1362055 1857401 26.05001 31.0500101068 4 0 0 0 0
49	54724843 22 2933766 2933766 40.05001 40.05001 1 0 0 0 0
49	68531095 49 3832185 3857004 46.05001 46.2000101068 2 0 0 0 0
49	82390713 191 4152760 4660797 48.00001 51.2000101068 8 0 0 0 0
49	96316579 71 5119513 5127866 54.00001 54.0500101068 3 0 0 0 0
49	110235258 93 5671050 6080444 57.05001 59.2000101068 4 0 0 0 0
49	137985543 44 7169990 7179423 65.00001 65.05001 2 0 0 0 0
49	151836843 98 7913983 8317725 69.05001 71.2000101068 4 0 0 0 0
49	165677557 93 8463695 8683392 72.00001 73.2000101068 4 0 0 0 0
49	179835159 71 9193520 9590173 76.05001 78.2500101068 3 0 0 0 0
49	207812307 74 11031124 11183542 87.05001 88.00001 3 0 0 0 0
49	222423579 102 11224839 11840638 88.2500101068 92.00001 4 0 0 0 0
49	236722760 79 11882869 12211640 92.2500101068 94.2500101068 3 0 0 0 0
49	251386867 46 12781639 12930287 98.00001 99.00001 2 0 0 0 0
49	265801916 106 13360595 13523951 102.00001 103.2000101068 4 0 0 0 0
49	280681431 24 14218427 14218427 108.05001 108.05001 1 0 0 0 0
49	295932201 77 14874271 15241557 113.00001 116.05001 3 0 0 0 0
49	310604026 132 15355361 15919325 117.0000101636 122.00001 5 0 512 512 262144
49	325938614 24 16383707 16383707 126.00001 126.00001 1 0 0 0 0
49	341758634 77 16889443 17283494 131.05001 135.2000101068 3 0 0 0 0
49	371107069 24 18041673 18041673 145.00001 145.00001 1 0 0 0 0
49	401844251 24 19653045 19653045 172.05001 172.05001 1 0 0 0 0
vector 50 Highway5G.gNodeB2.x2ppp[0].ppp transmissionState:vector ETV
attr interpolationmode sample-hold
attr recordingmode vector
attr source transmissionStateChanged
attr title "tx state"
50	1471322 173 0 316 0 0.000000518 9 0 1 4 4
50	27230484 201 1362055 1857405 26.05001 31.0500101508 8 0 1 4 4
50	54724865 49 2933766 2933770 40.05001 40.0500100568 2 0 1 1 1
50	68531144 103 3832185 3857005 46.05001 46.2000101508 4 0 1 2 2
50	82390904 407 4152760 4660798 48.00001 51.2000101508 16 0 1 8 8
50	96316650 152 5119513 5127875 54.00001 54.0500101508 6 0 1 3 3
50	110235351 201 5671050 6080445 57.05001 59.2000101508 8 0 1 4 4
50	137985587 98 7169990 7179427 65.00001 65.0500100568 4 0 1 2 2
50	151836941 206 7913983 8317726 69.05001 71.2000101508 8 0 1 4 4
50	165677650 201 8463695 8683393 72.00001 73.2000101508 8 0 1 4 4
50	179835230 152 9193520 9590174 76.05001 78.2500101508 6 0 1 3 3
50	207812381 158 11031124 11183544 87.05001 88.0000100568 6 0 1 3 3
50	222423681 214 11224839 11840640 88.2500101068 92.0000100568 8 0 1 4 4
50	236722839 163 11882869 12211641 92.2500101068 94.2500101508 6 0 1 3 3
50	251386913 102 12781639 12930288 98.00001 99.0000100568 4 0 1 2 2
50	265802022 222 13360595 13523952 102.00001 103.2000101508 8 0 1 4 4
50	280681455 53 14218427 14218429 108.05001 108.0500100568 2 0 1 1 1
50	295932278 164 14874271 15241559 113.00001 116.0500100568 6 0 1 3 3
50	310604158 222 15355361 15919326 117.0000101636 122.0000100568 8 0 1 4 4
50	325938638 53 16383707 16383708 126.00001 126.0000100568 2 0 1 1 1
50	341758711 164 16889443 17283495 131.05001 135.2000101508 6 0 1 3 3
50	371107093 53 18041673 18041674 145.00001 145.0000100568 2 0 1 1 1
50	401844275 53 19653045 19653047 172.05001 172.0500100568 2 0 1 1 1
vector 51 Highway5G.gNodeB2.x2ppp[1].queue queueLength:vector ETV
attr autoWarmupFilter false
attr interpolationmode sample-hold
attr recordingmode vector
attr source "warmup(atomic(constant0(packetPushEnded) + count(packetPushStarted) - count(packetPulled) - count(packetRemoved) - count(packetDropped)))"
attr title "queue length"
attr unit pk
51	1471495 220 0 513033 0 14.00001 14 0 0 0 0
51	27230685 115 1451507 1746367 27.05001 30.05001 5 0 1 1 1
51	40974196 22 2171222 2171222 34.00001 34.00001 1 0 0 0 0
51	54724914 44 2926896 3364776 40.00001 43.00001 2 0 0 0 0
51	68531247 44 3517366 3656555 44.05001 45.00001 2 0 0 0 0
51	82391311 93 4313863 4801931 49.00001 52.05001 4 0 1 1 1
51	124033455 22 6611665 6611665 62.05001 62.05001 1 0 0 0 0
51	137985685 22 7365998 7365998 66.05001 66.05001 1 0 0 0 0
51	151837147 22 7731665 7731665 68.00001 68.00001 1 0 0 0 0
51	165677851 103 8645874 9047076 73.0000101068 75.2500101068 4 0 0 0 0
51	193579704 55 9752685 10396861 79.2000101068 83.2500101068 2 0 0 0 0
51	222423895 79 11216605 11671063 88.2000101068 91.00001 3 0 0 0 0
51	236723002 56 11874493 12039107 92.2000101068 93.2000101068 2 0 0 0 0
51	251387015 24 13221544 13221544 101.00001 101.00001 1 0 0 0 0
51	280681508 48 14353693 14496816 109.00001 110.05001 2 0 0 0 0
51	295932442 82 14619813 15028180 111.00001 114.2500101068 3 0 0 0 0
51	310604380 58 15715432 15837416 120.2000101068 121.2500101068 2 0 0 0 0
51	325938691 53 16150301 16174419 124.00001 124.2000101068 2 0 0 0 0
51	356486519 29 17775231 17775231 141.2500101068 141.2500101068 1 0 0 0 0
51	386943737 77 18748627 19010452 155.05001 159.00001 3 0 0 0 0
51	401844328 24 19976407 19976407 179.00001 179.00001 1 0 0 0 0
51	417470579 29 20070538 20070538 181.2500101068 181.2500101068 1 0 0 0 0
51	432360737 29 20840119 20840119 215.2000101068 215.2000101068 1 0 0 0 0
vector 52 Highway5G.gNodeB2.x2ppp[1].queue queueBitLength:vector ETV
attr autoWarmupFilter false
attr interpolationmode sample-hold
attr recordingmode vector
attr source "warmup(atomic(constant0(packetPushEnded) + sum(packetLength(packetPushStarted)) - sum(packetLength(packetPulled)) - sum(packetLength(packetRemoved)) - sum(packetLength(packetDropped))))"
attr title "queue bit length"
attr unit b
52	1471715 220 0 513033 0 14.00001 14 0 0 0 0
52	27230800 117 1451507 1746367 27.05001 30.05001 5 0 512 512 262144
52	40974218 22 2171222 2171222 34.00001 34.00001 1 0 0 0 0
52	54724958 44 2926896 3364776 40.00001 43.00001 2 0 0 0 0
52	68531291 44 3517366 3656555 44.05001 45.00001 2 0 0 0 0
52	82391404 95 4313863 4801931 49.00001 52.05001 4 0 512 512 262144
52	124033477 22 6611665 6611665 62.05001 62.05001 1 0 0 0 0
52	137985707 22 7365998 7365998 66.05001 66.05001 1 0 0 0 0
52	151837169 22 7731665 7731665 68.00001 68.00001 1 0 0 0 0
52	165677954 103 8645874 9047076 73.0000101068 75.2500101068 4 0 0 0 0
52	193579759 55 9752685 10396861 79.2000101068 83.2500101068 2 0 0 0 0
52	222423974 79 11216605 11671063 88.2000101068 91.00001 3 0 0 0 0
52	236723058 56 11874493 12039107 92.2000101068 93.2000101068 2 0 0 0 0
52	251387039 24 13221544 13221544 101.00001 101.00001 1 0 0 0 0
52	280681556 48 14353693 14496816 109.00001 110.05001 2 0 0 0 0
52	295932524 82 14619813 15028180 111.00001 114.2500101068 3 0 0 0 0
52	310604438 58 15715432 15837416 120.2000101068 121.2500101068 2 0 0 0 0
52	325938744 53 16150301 16174419 124.00001 124.2000101068 2 0 0 0 0
52	356486548 29 17775231 17775231 141.2500101068 141.2500101068 1 0 0 0 0
52	386943814 77 18748627 19010452 155.05001 159.00001 3 0 0 0 0
52	401844352 24 19976407 19976407 179.00001 179.00001 1 0 0 0 0
52	417470608 29 20070538 20070538 181.2500101068 181.2500101068 1 0 0 0 0
52	432360766 29 20840119 20840119 215.2000101068 215.2000101068 1 0 0 0 0
vector 53 Highway5G.gNodeB2.x2ppp[1].ppp transmissionState:vector ETV
attr interpolationmode sample-hold
attr recordingmode vector
attr source transmissionStateChanged
attr title "tx state"
53	1471935 394 0 513034 0 14.0000100568 19 0 1 9 9
53	27230917 201 1451507 1746369 27.05001 30.0500100568 8 0 1 4 4
53	40974240 49 2171222 2171223 34.00001 34.0000100568 2 0 1 1 1
53	54725002 98 2926896 3364777 40.00001 43.0000100568 4 0 1 2 2
53	68531335 98 3517366 3656556 44.05001 45.0000100568 4 0 1 2 2
53	82391499 152 4313863 4801933 49.00001 52.0500100568 6 0 1 3 3
53	124033499 49 6611665 6611667 62.05001 62.0500100568 2 0 1 1 1
53	137985729 49 7365998 7366000 66.05001 66.0500100568 2 0 1 1 1
53	151837191 49 7731665 7731666 68.00001 68.0000100568 2 0 1 1 1
53	165678057 211 8645874 9047078 73.0000101068 75.2500101508 8 0 1 4 4
53	193579814 110 9752685 10396862 79.2000101068 83.2500101508 4 0 1 2 2
53	222424053 163 11216605 11671064 88.2000101068 91.0000100568 6 0 1 3 3
53	236723114 112 11874493 12039108 92.2000101068 93.2000101508 4 0 1 2 2
53	251387063 53 13221544 13221545 101.00001 101.0000100568 2 0 1 1 1
53	280681604 106 14353693 14496818 109.00001 110.0500100568 4 0 1 2 2
53	295932606 169 14619813 15028181 111.00001 114.2500101508 6 0 1 3 3
53	310604496 116 15715432 15837417 120.2000101068 121.2500101508 4 0 1 2 2
53	325938797 111 16150301 16174421 124.00001 124.2000101508 4 0 1 2 2
53	356486577 58 17775231 17775232 141.2500101068 141.2500101508 2 0 1 1 1
53	386943891 164 18748627 19010453 155.05001 159.0000100568 6 0 1 3 3
53	401844376 53 19976407 19976408 179.00001 179.0000100568 2 0 1 1 1
53	417470637 58 20070538 20070539 181.2500101068 181.2500101508 2 0 1 1 1
53	432360795 58 20840119 20840120 215.2000101068 215.2000101508 2 0 1 1 1
vector 54 Highway5G.gNodeB2.pppMEHostIf.queue queueLength:vector ETV
attr autoWarmupFilter false
attr interpolationmode sample-hold
attr recordingmode vector
attr source "warmup(atomic(constant0(packetPushEnded) + count(packetPushStarted) - count(packetPulled) - count(packetRemoved) - count(packetDropped)))"
attr title "queue length"
attr unit pk
54	1472329 45 0 0 0 0 5 0 0 0 0
vector 55 Highway5G.gNodeB2.pppMEHostIf.queue queueBitLength:vector ETV
attr autoWarmupFilter false
attr interpolationmode sample-hold
attr recordingmode vector
attr source "warmup(atomic(constant0(packetPushEnded) + sum(packetLength(packetPushStarted)) - sum(packetLength(packetPulled)) - sum(packetLength(packetRemoved)) - sum(packetLength(packetDropped))))"
attr title "queue bit length"
attr unit b
55	1472374 45 0 0 0 0 5 0 0 0 0
vector 56 Highway5G.gNodeB2.pppMEHostIf.ppp transmissionState:vector ETV
attr interpolationmode sample-hold
attr recordingmode vector
attr source transmissionStateChanged
attr title "tx state"
56	1472419 9 0 0 0 0 1 0 0 0 0
vector 57 Highway5G.gNodeB2.udp passedUpPk:vector(count) ETV
attr interpolationmode none
attr recordingmode vector(count)
attr source packetSentToUpper
attr title "packets passed up, count"
57	1472428 9 0 0 0 0 1 0 0 0 0
vector 58 Highway5G.gNodeB2.udp droppedPkWrongPort:vector(count) ETV
attr interpolationmode none
attr recordingmode vector(count)
attr source packetDropReasonIsNoPortFound(packetDropped)
attr title "packets dropped (wrong port), count"
58	1472437 9 0 0 0 0 1 0 0 0 0
vector 59 Highway5G.gNodeB2.udp droppedPkBadChecksum:vector(count) ETV
attr interpolationmode none
attr recordingmode vector(count)
attr source packetDropReasonIsIncorrectlyReceived(packetDropped)
attr title "packets dropped (checksum error), count"
59	1472446 9 0 0 0 0 1 0 0 0 0
vector 60 Highway5G.gNodeB3.pppIf.queue queueLength:vector ETV
attr autoWarmupFilter false
attr interpolationmode sample-hold
attr recordingmode vector
attr source "warmup(atomic(constant0(packetPushEnded) + count(packetPushStarted) - count(packetPulled) - count(packetRemoved) - count(packetDropped)))"
attr title "queue length"
attr unit pk
60	1472455 16543 0 640002 0 16.202 889 0 1 6 6
60	13856178 24071 709425 1356642 17.478 25.988 1186 0 2 195 275
60	27231118 16433 1358270 2054447 26.005 32.888 804 0 1 70 70
60	40974289 12118 2055857 2754162 32.902 38.714 605 0 1 13 13
60	54725100 14051 2754989 3438054 38.72 43.493 714 0 1 1 1
60	68531433 17511 3438755 4145644 43.498 47.959 871 0 1 19 19
60	82391651 12988 4147538 4856412 47.971 52.385 663 0 0 0 0
60	96316802 17581 4856612 5559789 52.386 56.386 857 0 2 99 123
60	110235552 18539 5561817 6256176 56.398 60.094 901 0 1 87 87
60	124033548 22343 6256431 6975388 60.095 63.961 1116 0 1 26 26
60	137985778 19297 6976276 7665841 63.965 67.647 957 0 1 51 51
60	151837240 23147 7667115 8367246 67.654 71.478 1136 0 1 93 93
60	165678268 29249 8368708 9055520 71.486 75.298 1379 0 2 321 395
60	179835382 19613 9055589 9746900 75.2980000888 79.165 975 0 1 34 34
60	193579924 20640 9748853 10482427 79.177 83.785 977 0 1 102 102
60	207812539 24216 10483228 11188880 83.79 88.033 1115 0 1 168 168
60	222424216 21830 11189200 11872963 88.035 92.1910000888 1039 0 3 19 29
60	236723226 37524 11873736 12536066 92.196 96.299 1720 0 1 201 201
60	251387116 42167 12536545 13245539 96.302 101.18 1912 0 2 330 406
60	265802244 36170 13246524 13919334 101.187 105.919 1582 0 2 292 384
60	280681710 29920 13920392 14601486 105.926 110.85 1351 0 1 92 92
60	295932775 29026 14602696 15307790 110.86 116.604 1307 0 1 102 102
60	310604612 32783 15309182 15961112 116.616 122.386 1462 0 9 345 1435
60	325938908 42904 15962281 16638537 122.397 128.486 1861 0 2 323 365
60	341758875 27967 16639674 17336316 128.497 135.85 1274 0 0 0 0
60	356486635 20708 17337256 18017640 135.862 144.651 938 0 1 24 24
60	371107146 23019 18018579 18693192 144.665 154.139 1025 0 1 67 67
60	386944055 20417 18694392 19396026 154.159 166.259 932 0 1 15 15
60	401844429 10333 19396315 20046273 166.266 180.638 470 0 0 0 0
60	432360853 5687 20837544 21019889 215.07 225.632 258 0 2 4 6
vector 61 Highway5G.gNodeB3.pppIf.queue queueBitLength:vector ETV
attr autoWarmupFilter false
[...]
2394	430084083 31 20068760 20068760 181.2000102008 181.2000102008 1 0 0 0 0
2394	431998724 31 20841101 20841101 215.2500102008 215.2500102008 1 0 0 0 0
vector 2395 Highway5G.gNodeB3.sctp "Number of Gap Missed Chunks in Last SACK 108:192.168.9.2" ETV
2395	177937902 87 8655229 9038325 73.0500102008 75.2000102008 3 0 0 0 0
2395	206206848 59 9760766 10388986 79.2500102008 83.2000102008 2 0 0 0 0
2395	235007837 60 11224848 11389485 88.2500102008 89.2500102008 2 0 0 0 0
2395	249385936 60 11882878 12047152 92.2500102008 93.2500102008 2 0 0 0 0
2395	309050063 62 14651494 15021952 111.2500102008 114.2000102008 2 0 0 0 0
2395	323735489 62 15721323 15831591 120.2500102008 121.2000102008 2 0 0 0 0
2395	339048495 31 16180716 16180716 124.2500102008 124.2500102008 1 0 0 0 0
2395	369496522 31 17771477 17771477 141.2000102008 141.2000102008 1 0 0 0 0
2395	399831723 31 18960961 18960961 158.2000102008 158.2000102008 1 0 0 0 0
2395	430084114 31 20068760 20068760 181.2000102008 181.2000102008 1 0 0 0 0
2395	431998755 31 20841101 20841101 215.2500102008 215.2500102008 1 0 0 0 0
vector 2396 Highway5G.gNodeB3.sctp "Number of Gap Acked Chunks in Last SACK 108:192.168.11.2" ETV
2396	177937989 87 8655229 9038325 73.0500102008 75.2000102008 3 0 0 0 0
2396	206206907 59 9760766 10388986 79.2500102008 83.2000102008 2 0 0 0 0
2396	235007897 60 11224848 11389485 88.2500102008 89.2500102008 2 0 0 0 0
2396	249385996 60 11882878 12047152 92.2500102008 93.2500102008 2 0 0 0 0
2396	309050125 62 14651494 15021952 111.2500102008 114.2000102008 2 0 0 0 0
2396	323735551 62 15721323 15831591 120.2500102008 121.2000102008 2 0 0 0 0
2396	339048526 31 16180716 16180716 124.2500102008 124.2500102008 1 0 0 0 0
2396	369496553 31 17771477 17771477 141.2000102008 141.2000102008 1 0 0 0 0
2396	399831754 31 18960961 18960961 158.2000102008 158.2000102008 1 0 0 0 0
2396	430084145 31 20068760 20068760 181.2000102008 181.2000102008 1 0 0 0 0
2396	431999098 31 20841101 20841101 215.2500102008 215.2500102008 1 0 0 0 0
vector 2397 Highway5G.gNodeB3.sctp "Number of Non-Revokable Gap Acked Chunks in Last SACK 108:192.168.11.2" ETV
2397	177938076 87 8655229 9038325 73.0500102008 75.2000102008 3 0 0 0 0
2397	206206966 59 9760766 10388986 79.2500102008 83.2000102008 2 0 0 0 0
2397	235007957 60 11224848 11389485 88.2500102008 89.2500102008 2 0 0 0 0
2397	249386056 60 11882878 12047152 92.2500102008 93.2500102008 2 0 0 0 0
2397	309050187 62 14651494 15021952 111.2500102008 114.2000102008 2 0 0 0 0
2397	323735613 62 15721323 15831591 120.2500102008 121.2000102008 2 0 0 0 0
2397	339048557 31 16180716 16180716 124.2500102008 124.2500102008 1 0 0 0 0
2397	369496584 31 17771477 17771477 141.2000102008 141.2000102008 1 0 0 0 0
2397	399831785 31 18960961 18960961 158.2000102008 158.2000102008 1 0 0 0 0
2397	430084176 31 20068760 20068760 181.2000102008 181.2000102008 1 0 0 0 0
2397	431999129 31 20841101 20841101 215.2500102008 215.2500102008 1 0 0 0 0
vector 2398 Highway5G.gNodeB3.sctp "Number of Gap Missed Chunks in Last SACK 108:192.168.11.2" ETV
2398	177938163 87 8655229 9038325 73.0500102008 75.2000102008 3 0 0 0 0
2398	206207025 59 9760766 10388986 79.2500102008 83.2000102008 2 0 0 0 0
2398	235008017 60 11224848 11389485 88.2500102008 89.2500102008 2 0 0 0 0
2398	249386116 60 11882878 12047152 92.2500102008 93.2500102008 2 0 0 0 0
2398	309050249 62 14651494 15021952 111.2500102008 114.2000102008 2 0 0 0 0
2398	323735675 62 15721323 15831591 120.2500102008 121.2000102008 2 0 0 0 0
2398	339048588 31 16180716 16180716 124.2500102008 124.2500102008 1 0 0 0 0
2398	369496615 31 17771477 17771477 141.2000102008 141.2000102008 1 0 0 0 0
2398	399831816 31 18960961 18960961 158.2000102008 158.2000102008 1 0 0 0 0
2398	430084207 31 20068760 20068760 181.2000102008 181.2000102008 1 0 0 0 0
2398	431999160 31 20841101 20841101 215.2500102008 215.2500102008 1 0 0 0 0
vector 2399 Highway5G.gNodeB3.sctp "Number of Gap Acked Chunks in Last SACK 108:192.168.13.1" ETV
2399	177938250 87 8655229 9038325 73.0500102008 75.2000102008 3 0 0 0 0
2399	206207084 59 9760766 10388986 79.2500102008 83.2000102008 2 0 0 0 0
2399	235008077 60 11224848 11389485 88.2500102008 89.2500102008 2 0 0 0 0
2399	249386176 60 11882878 12047152 92.2500102008 93.2500102008 2 0 0 0 0
2399	309050311 62 14651494 15021952 111.2500102008 114.2000102008 2 0 0 0 0
2399	323735737 62 15721323 15831591 120.2500102008 121.2000102008 2 0 0 0 0
2399	339048619 31 16180716 16180716 124.2500102008 124.2500102008 1 0 0 0 0
2399	369496646 31 17771477 17771477 141.2000102008 141.2000102008 1 0 0 0 0
2399	399831847 31 18960961 18960961 158.2000102008 158.2000102008 1 0 0 0 0
2399	430084238 31 20068760 20068760 181.2000102008 181.2000102008 1 0 0 0 0
2399	431999318 31 20841101 20841101 215.2500102008 215.2500102008 1 0 0 0 0
vector 2400 Highway5G.gNodeB3.sctp "Number of Non-Revokable Gap Acked Chunks in Last SACK 108:192.168.13.1" ETV
2400	177938337 87 8655229 9038325 73.0500102008 75.2000102008 3 0 0 0 0
2400	206207143 59 9760766 10388986 79.2500102008 83.2000102008 2 0 0 0 0
2400	235008137 60 11224848 11389485 88.2500102008 89.2500102008 2 0 0 0 0
2400	249386236 60 11882878 12047152 92.2500102008 93.2500102008 2 0 0 0 0
2400	309050373 62 14651494 15021952 111.2500102008 114.2000102008 2 0 0 0 0
2400	323735799 62 15721323 15831591 120.2500102008 121.2000102008 2 0 0 0 0
2400	339048650 31 16180716 16180716 124.2500102008 124.2500102008 1 0 0 0 0
2400	369496677 31 17771477 17771477 141.2000102008 141.2000102008 1 0 0 0 0
2400	399831878 31 18960961 18960961 158.2000102008 158.2000102008 1 0 0 0 0
2400	430084269 31 20068760 20068760 181.2000102008 181.2000102008 1 0 0 0 0
2400	431999349 31 20841101 20841101 215.2500102008 215.2500102008 1 0 0 0 0
vector 2401 Highway5G.gNodeB3.sctp "Number of Gap Missed Chunks in Last SACK 108:192.168.13.1" ETV
2401	177938424 87 8655229 9038325 73.0500102008 75.2000102008 3 0 0 0 0
2401	206207202 59 9760766 10388986 79.2500102008 83.2000102008 2 0 0 0 0
2401	235008197 60 11224848 11389485 88.2500102008 89.2500102008 2 0 0 0 0
2401	249386296 60 11882878 12047152 92.2500102008 93.2500102008 2 0 0 0 0
2401	309050435 62 14651494 15021952 111.2500102008 114.2000102008 2 0 0 0 0
2401	323735861 62 15721323 15831591 120.2500102008 121.2000102008 2 0 0 0 0
2401	339048681 31 16180716 16180716 124.2500102008 124.2500102008 1 0 0 0 0
2401	369496708 31 17771477 17771477 141.2000102008 141.2000102008 1 0 0 0 0
2401	399831909 31 18960961 18960961 158.2000102008 158.2000102008 1 0 0 0 0
2401	430084300 31 20068760 20068760 181.2000102008 181.2000102008 1 0 0 0 0
2401	431999380 31 20841101 20841101 215.2500102008 215.2500102008 1 0 0 0 0
vector 2402 Highway5G.gNodeB3.sctp "Arwnd in Last SACK 99" ETV
2402	177938511 99 8655229 9038325 73.0500102008 75.2000102008 3 65520 65535 196590 12882542850
2402	206207261 67 9760766 10388986 79.2500102008 83.2000102008 2 65535 65535 131070 8589672450
2402	235008257 68 11224848 11389485 88.2500102008 89.2500102008 2 65535 65535 131070 8589672450
2402	249386356 68 11882878 12047152 92.2500102008 93.2500102008 2 65535 65535 131070 8589672450
2402	309050497 70 14651494 15021952 111.2500102008 114.2000102008 2 65535 65535 131070 8589672450
2402	323735923 70 15721323 15831591 120.2500102008 121.2000102008 2 65535 65535 131070 8589672450
2402	339048712 35 16180716 16180716 124.2500102008 124.2500102008 1 65535 65535 65535 4294836225
2402	369496739 35 17771477 17771477 141.2000102008 141.2000102008 1 65535 65535 65535 4294836225
2402	399831940 35 18960961 18960961 158.2000102008 158.2000102008 1 65535 65535 65535 4294836225
2402	430084331 35 20068760 20068760 181.2000102008 181.2000102008 1 65535 65535 65535 4294836225
2402	431999672 35 20841101 20841101 215.2500102008 215.2500102008 1 65535 65535 65535 4294836225
vector 2403 Highway5G.gNodeB3.sctp "TSN PseudoCumAck 108:192.168.11.2" ETV
2403	177938610 87 8655229 9038325 73.0500102008 75.2000102008 3 0 0 0 0
2403	206207328 59 9760766 10388986 79.2500102008 83.2000102008 2 0 0 0 0
2403	235008325 60 11224848 11389485 88.2500102008 89.2500102008 2 0 0 0 0
2403	249386424 60 11882878 12047152 92.2500102008 93.2500102008 2 0 0 0 0
2403	309050567 62 14651494 15021952 111.2500102008 114.2000102008 2 0 0 0 0
2403	323735993 62 15721323 15831591 120.2500102008 121.2000102008 2 0 0 0 0
2403	339048747 31 16180716 16180716 124.2500102008 124.2500102008 1 0 0 0 0
2403	369496774 31 17771477 17771477 141.2000102008 141.2000102008 1 0 0 0 0
2403	399831975 31 18960961 18960961 158.2000102008 158.2000102008 1 0 0 0 0
2403	430084366 31 20068760 20068760 181.2000102008 181.2000102008 1 0 0 0 0
2403	431999256 31 20841101 20841101 215.2500102008 215.2500102008 1 0 0 0 0
vector 2404 Highway5G.gNodeB3.sctp "TSN RTXPseudoCumAck 108:192.168.11.2" ETV
2404	177938697 87 8655229 9038325 73.0500102008 75.2000102008 3 0 0 0 0
2404	206207387 59 9760766 10388986 79.2500102008 83.2000102008 2 0 0 0 0
2404	235008385 60 11224848 11389485 88.2500102008 89.2500102008 2 0 0 0 0
2404	249386484 60 11882878 12047152 92.2500102008 93.2500102008 2 0 0 0 0
2404	309050629 62 14651494 15021952 111.2500102008 114.2000102008 2 0 0 0 0
2404	323736055 62 15721323 15831591 120.2500102008 121.2000102008 2 0 0 0 0
2404	339048778 31 16180716 16180716 124.2500102008 124.2500102008 1 0 0 0 0
2404	369496805 31 17771477 17771477 141.2000102008 141.2000102008 1 0 0 0 0
2404	399832006 31 18960961 18960961 158.2000102008 158.2000102008 1 0 0 0 0
2404	430084397 31 20068760 20068760 181.2000102008 181.2000102008 1 0 0 0 0
2404	431999287 31 20841101 20841101 215.2500102008 215.2500102008 1 0 0 0 0
vector 2405 Highway5G.gNodeB3.sctp "Partial Bytes Acked 108:192.168.11.2" ETV
2405	177938784 87 8655229 9038325 73.0500102008 75.2000102008 3 0 0 0 0
2405	206207446 445 9760766 10388986 79.2500102008 83.2000102008 2 0 0 0 0
2405	235008445 60 11224848 11389485 88.2500102008 89.2500102008 2 0 0 0 0
2405	249386544 60 11882878 12047152 92.2500102008 93.2500102008 2 0 0 0 0
2405	309050691 62 14651494 15021952 111.2500102008 114.2000102008 2 0 0 0 0
2405	323736117 62 15721323 15831591 120.2500102008 121.2000102008 2 0 0 0 0
2405	339048809 31 16180716 16180716 124.2500102008 124.2500102008 1 0 0 0 0
2405	369496836 31 17771477 17771477 141.2000102008 141.2000102008 1 0 0 0 0
2405	399832037 31 18960961 18960961 158.2000102008 158.2000102008 1 0 0 0 0
2405	430084428 31 20068760 20068760 181.2000102008 181.2000102008 1 0 0 0 0
2405	431999191 31 20841101 20841101 215.2500102008 215.2500102008 1 0 0 0 0
vector 2406 Highway5G.car[16].cellularNic.nrMac harqErrorRate_3rd_Ul:vector ETV
attr recordingmode vector
attr source harqErrorRate_3rd_Ul
attr title "Harq Error Rate Ul (3rd tx)"
attr unit ""
2406	220553649 207 10893695 10991888 86.233 86.813 9 0 0 0 0
vector 2407 Highway5G.car[38].cellularNic.nrMac harqErrorRate_2nd_Ul:vector ETV
attr recordingmode vector
attr source harqErrorRate_2nd_Ul
attr title "Harq Error Rate Ul (2nd tx)"
attr unit ""
2407	220553856 22 11042596 11042596 87.12 87.12 1 0 0 0 0
2407	264173285 22 13058739 13058739 99.85 99.85 1 0 0 0 0
2407	293836779 24 14227889 14227889 108.117 108.117 1 0 0 0 0
2407	339752157 48 17058753 17184564 132.737 134.117 2 0 0 0 0
vector 2408 Highway5G.car[23].cellularNic.nrMac harqErrorRate_3rd_Ul:vector ETV
attr recordingmode vector
attr source harqErrorRate_3rd_Ul
attr title "Harq Error Rate Ul (3rd tx)"
attr unit ""
2408	235008505 23 11690976 11690976 91.124 91.124 1 0 0 0 0
vector 2409 Highway5G.car[20].cellularNic.nrMac harqErrorRate_3rd_Ul:vector ETV
attr recordingmode vector
attr source harqErrorRate_3rd_Ul
attr title "Harq Error Rate Ul (3rd tx)"
attr unit ""
2409	264173307 480 13102815 13215491 100.148 100.956 20 0 1 1 1
2409	278983992 24 13515128 13515128 103.136 103.136 1 0 0 0 0
2409	293836803 781 14089847 14471847 107.13 109.862 33 0 0 0 0
vector 2410 Highway5G.car[20].cellularNic.nrMac harqErrorRate_4th_Ul:vector ETV
attr recordingmode vector
attr source harqErrorRate_4th_Ul
attr title "Harq Error Rate Ul (4th tx)"
attr unit ""
2410	264173787 217 13196117 13196117 100.814 100.814 1 0 0 0 0
vector 2411 Highway5G.car[29].cellularNic.nrMac harqErrorRate_2nd_Ul:vector ETV
attr recordingmode vector
attr source harqErrorRate_2nd_Ul
attr title "Harq Error Rate Ul (2nd tx)"
attr unit ""
2411	278984016 24 13805347 13805347 105.112 105.112 1 0 0 0 0
2411	293837584 24 14088052 14088052 107.117 107.117 1 0 0 0 0
vector 2412 Highway5G.car[36].cellularNic.nrMac harqErrorRate_2nd_Ul:vector ETV
attr recordingmode vector
attr source harqErrorRate_2nd_Ul
attr title "Harq Error Rate Ul (2nd tx)"
attr unit ""
2412	293837608 24 14371404 14371404 109.127 109.127 1 0 0 0 0
2412	323736179 24 15370529 15370529 117.121 117.121 1 0 0 0 0
2412	323924328 1080 16047560 16151453 123.129 124.009 45 0 1 1 1
vector 2413 Highway5G.car[13].cellularNic.nrMac harqErrorRate_4th_Ul:vector ETV
attr recordingmode vector
attr source harqErrorRate_4th_Ul
attr title "Harq Error Rate Ul (4th tx)"
attr unit ""
2413	309050753 48 15137812 15140540 115.134 115.158 2 1 1 2 2
2413	339048840 1128 16168325 16282456 124.151 125.091 47 1 1 47 47
2413	385080809 24 19125957 19125957 161.126 161.126 1 1 1 1 1
vector 2414 Highway5G.car[36].cellularNic.nrMac harqErrorRate_3rd_Ul:vector ETV
attr recordingmode vector
attr source harqErrorRate_3rd_Ul
attr title "Harq Error Rate Ul (3rd tx)"
attr unit ""
2414	323924304 24 16104459 16104459 123.615 123.615 1 0 0 0 0
vector 2415 Highway5G.car[28].cellularNic.nrMac harqErrorRate_3rd_Ul:vector ETV
attr recordingmode vector
attr source harqErrorRate_3rd_Ul
attr title "Harq Error Rate Ul (3rd tx)"
attr unit ""
2415	354689581 24 16702879 16702879 129.119 129.119 1 0 0 0 0
vector 2416 Highway5G.car[35].cellularNic.nrMac harqErrorRate_3rd_Ul:vector ETV
attr recordingmode vector
attr source harqErrorRate_3rd_Ul
attr title "Harq Error Rate Ul (3rd tx)"
attr unit ""
2416	369496867 24 17524004 17524004 138.127 138.127 1 0 0 0 0
vector 2417 Highway5G.car[11].cellularNic.nrMac harqErrorRate_3rd_Ul:vector ETV
attr recordingmode vector
attr source harqErrorRate_3rd_Ul
attr title "Harq Error Rate Ul (3rd tx)"
attr unit ""
2417	384229920 696 18346946 18394674 149.119 149.791 29 1 1 29 29
2417	430084459 120 20711057 20727404 208.278 209.098 5 0 0 0 0
2417	430642095 216 20766414 20783106 211.138 212.018 9 0 0 0 0
vector 2418 Highway5G.car[11].cellularNic.nrMac harqErrorRate_4th_Ul:vector ETV
attr recordingmode vector
attr source harqErrorRate_4th_Ul
attr title "Harq Error Rate Ul (4th tx)"
attr unit ""
2418	384230616 696 18347357 18395093 149.125 149.797 29 1 1 29 29
vector 2419 Highway5G.server.ppp[0].queue outgoingDataRate:vector ETV
attr interpolationmode linear
attr recordingmode vector
attr source throughput(packetPulled)
attr title "outgoing datarate"
attr unit bps
2419	439817013 51222 21149464 21149464 0.1 240 2400 0 0 0 0
vector 2420 Highway5G.server.ppp[0].queue incomingDataRate:vector ETV
attr interpolationmode linear
attr recordingmode vector
attr source throughput(packetPushStarted)
attr title "incoming datarate"
attr unit bps
2420	439868235 51222 21149464 21149464 0.1 240 2400 0 0 0 0
vector 2421 Highway5G.router.ppp[1].queue outgoingDataRate:vector ETV
attr interpolationmode linear
attr recordingmode vector
attr source throughput(packetPulled)
attr title "outgoing datarate"
attr unit bps
2421	439919457 51222 21149464 21149464 0.1 240 2400 0 0 0 0
vector 2422 Highway5G.router.ppp[1].queue incomingDataRate:vector ETV
attr interpolationmode linear
attr recordingmode vector
attr source throughput(packetPushStarted)
attr title "incoming datarate"
attr unit bps
2422	439970679 51222 21149464 21149464 0.1 240 2400 0 0 0 0
vector 2423 Highway5G.upf.ppp[0].queue outgoingDataRate:vector ETV
attr interpolationmode linear
attr recordingmode vector
attr source throughput(packetPulled)
attr title "outgoing datarate"
attr unit bps
2423	440021901 51222 21149464 21149464 0.1 240 2400 0 0 0 0
vector 2424 Highway5G.upf.ppp[0].queue incomingDataRate:vector ETV
attr interpolationmode linear
attr recordingmode vector
attr source throughput(packetPushStarted)
attr title "incoming datarate"
attr unit bps
2424	440073123 51222 21149464 21149464 0.1 240 2400 0 0 0 0
vector 2425 Highway5G.upf.ppp[1].queue outgoingDataRate:vector ETV
attr interpolationmode linear
attr recordingmode vector
attr source throughput(packetPulled)
attr title "outgoing datarate"
attr unit bps
2425	440124345 51222 21149464 21149464 0.1 240 2400 0 0 0 0
vector 2426 Highway5G.upf.ppp[1].queue incomingDataRate:vector ETV
attr interpolationmode linear
attr recordingmode vector
attr source throughput(packetPushStarted)
attr title "incoming datarate"
attr unit bps
2426	440175567 51222 21149464 21149464 0.1 240 2400 0 0 0 0
vector 2427 Highway5G.upf.ppp[2].queue outgoingDataRate:vector ETV
attr interpolationmode linear
attr recordingmode vector
attr source throughput(packetPulled)
attr title "outgoing datarate"
attr unit bps
2427	440226789 51222 21149464 21149464 0.1 240 2400 0 0 0 0
vector 2428 Highway5G.upf.ppp[2].queue incomingDataRate:vector ETV
attr interpolationmode linear
attr recordingmode vector
attr source throughput(packetPushStarted)
attr title "incoming datarate"
attr unit bps
2428	440278011 51222 21149464 21149464 0.1 240 2400 0 0 0 0
vector 2429 Highway5G.upf.ppp[3].queue outgoingDataRate:vector ETV
attr interpolationmode linear
attr recordingmode vector
attr source throughput(packetPulled)
attr title "outgoing datarate"
attr unit bps
2429	440329233 51222 21149464 21149464 0.1 240 2400 0 0 0 0
vector 2430 Highway5G.upf.ppp[3].queue incomingDataRate:vector ETV
attr interpolationmode linear
attr recordingmode vector
attr source throughput(packetPushStarted)
attr title "incoming datarate"
attr unit bps
2430	440380455 51222 21149464 21149464 0.1 240 2400 0 0 0 0
vector 2431 Highway5G.gNodeB1.pppMEHostIf.queue outgoingDataRate:vector ETV
attr interpolationmode linear
attr recordingmode vector
attr source throughput(packetPulled)
attr title "outgoing datarate"
attr unit bps
2431	440431677 51222 21149464 21149464 0.1 240 2400 0 0 0 0
vector 2432 Highway5G.gNodeB1.pppMEHostIf.queue incomingDataRate:vector ETV
attr interpolationmode linear
attr recordingmode vector
attr source throughput(packetPushStarted)
attr title "incoming datarate"
attr unit bps
2432	440482899 51222 21149464 21149464 0.1 240 2400 0 0 0 0
vector 2433 Highway5G.gNodeB2.pppMEHostIf.queue outgoingDataRate:vector ETV
attr interpolationmode linear
attr recordingmode vector
attr source throughput(packetPulled)
attr title "outgoing datarate"
attr unit bps
2433	440534121 51222 21149464 21149464 0.1 240 2400 0 0 0 0
vector 2434 Highway5G.gNodeB2.pppMEHostIf.queue incomingDataRate:vector ETV
attr interpolationmode linear
attr recordingmode vector
attr source throughput(packetPushStarted)
attr title "incoming datarate"
attr unit bps
2434	440585343 51222 21149464 21149464 0.1 240 2400 0 0 0 0
vector 2435 Highway5G.gNodeB3.pppMEHostIf.queue outgoingDataRate:vector ETV
attr interpolationmode linear
attr recordingmode vector
attr source throughput(packetPulled)
attr title "outgoing datarate"
attr unit bps
2435	440636565 51222 21149464 21149464 0.1 240 2400 0 0 0 0
vector 2436 Highway5G.gNodeB3.pppMEHostIf.queue incomingDataRate:vector ETV
attr interpolationmode linear
attr recordingmode vector
attr source throughput(packetPushStarted)
attr title "incoming datarate"
attr unit bps
2436	440687787 51222 21149464 21149464 0.1 240 2400 0 0 0 0
vector 2437 Highway5G.gNodeB4.pppMEHostIf.queue outgoingDataRate:vector ETV
attr interpolationmode linear
attr recordingmode vector
attr source throughput(packetPulled)
attr title "outgoing datarate"
attr unit bps
2437	440739009 51222 21149464 21149464 0.1 240 2400 0 0 0 0
vector 2438 Highway5G.gNodeB4.pppMEHostIf.queue incomingDataRate:vector ETV
attr interpolationmode linear
attr recordingmode vector
attr source throughput(packetPushStarted)
attr title "incoming datarate"
attr unit bps
2438	440790231 51223 21149464 21149464 0.1 240 2400 0 0 0 0
