file 1460085 1751806531                                         
version 2
run VoIP-DL-0-20250706-09:06:17-852236
attr configname VoIP-DL
attr datetime 20250706-09:06:17
attr datetimef 20250706-090617
attr experiment VoIP-DL
attr inifile omnetpp.ini
attr iterationvars ""
attr iterationvarsd ""
attr iterationvarsf ""
attr measurement ""
attr network Highway5G
attr processid 852236
attr repetition 0
attr replication #0
attr resultdir results
attr runnumber 0
attr seedset 0
config image-path ../../../../../../../OMNET/omnetpp-6.0.3/workspaces/inet4.5/images:../../../../../../../OMNET/omnetpp-6.0.3/workspaces/simu5g/images:../../../../../../../Dev/veins_new/images
config *.server.numApps 45
config *.server.app[*].typename VoIPSender
config *.server.app[*].localPort "3000 + ancestorIndex(0)"
config *.server.app[*].destAddress "\"car[\" + string(ancestorIndex(0)) + \"]\""
config *.server.app[*].startTime 0.05s
config *.car[*].numApps 1
config *.car[*].app[0].typename VoIPReceiver
config cmdenv-express-mode true
config cmdenv-autoflush true
config image-path ../../images
config network Highway5G
config debug-on-errors false
config print-undisposed false
config sim-time-limit 60s
config **.sctp.**.scalar-recording true
config **.sctp.**.vector-recording true
config **.routingRecorder.enabled false
config *.veinsManager.host "\"localhost\""
config *.veinsManager.port 9999
config *.veinsManager.moduleType "\"simu5g.nodes.cars.NRCar\""
config *.veinsManager.moduleName "\"car\""
config *.veinsManager.launchConfig "xmldoc(\"cenarioA.launchd.xml\")"
config *.veinsManager.updateInterval 0.1s
config *.physicalEnvironment.config "xmldoc(\"obstacles.xml\")"
config *.radioMedium.obstacleLoss.typename IdealObstacleLoss
config *.car[*].mobility.typename projectpredicthandover.veins_inet.VeinsInetMobility
config **.mobility.constraintAreaMaxX 3000m
config **.mobility.constraintAreaMinX 0m
config **.mobility.constraintAreaMaxY 3000m
config **.mobility.constraintAreaMinY 0m
config **.mobility.constraintAreaMinZ 0m
config **.mobility.constraintAreaMaxZ 10m
config *.gNodeB1.mobility.initialX 1129.71m
config *.gNodeB1.mobility.initialY 555.867m
config *.gNodeB1.mobility.initialZ 0m
config *.gNodeB1.mobility.constraintAreaMinX 1129.71m
config *.gNodeB1.mobility.constraintAreaMaxX 1129.71m
config *.gNodeB1.mobility.constraintAreaMinY 555.867m
config *.gNodeB1.mobility.constraintAreaMaxY 555.867m
config *.gNodeB1.mobility.constraintAreaMinZ 0m
config *.gNodeB1.mobility.constraintAreaMaxZ 0m
config *.gNodeB2.mobility.initialX 1600m
config *.gNodeB2.mobility.initialY 800m
config *.gNodeB2.mobility.initialZ 0m
config *.gNodeB2.mobility.constraintAreaMinX 1600m
config *.gNodeB2.mobility.constraintAreaMaxX 1600m
config *.gNodeB2.mobility.constraintAreaMinY 800m
config *.gNodeB2.mobility.constraintAreaMaxY 800m
config *.gNodeB2.mobility.constraintAreaMinZ 0m
config *.gNodeB2.mobility.constraintAreaMaxZ 0m
config **.numBands 25
config **.ueTxPower 26
config **.eNodeBTxPower 50
config *.car[*].cellularNic.nrPhy.dynamicCellAssociation true
config *.car[*].masterId 0
config *.car[*].macCellId 0
config *.car[*].nrMasterId 1
config *.car[*].nrMacCellId 1
config *.car[*].cellularNic.nrPhy.handoverThreshold -8
config **.gNodeB1.macCellId 1
config **.gNodeB1.macNodeId 1
config **.gNodeB2.macCellId 2
config **.gNodeB2.macNodeId 2
config *.car[*].cellularNic.nrMac.dynamicCellAssociation true
config *.car[*].cellularNic.nrMac.enableHandover true
config *.car[*].cellularNic.nrPhy.enableHandover true
config *.gNodeB*.cellularNic.phy.enableHandover true
config *.gNodeB*.cellularNic.nrMac.enableHandover true
config *.gNodeB*.cellularNic.phy.handoverLatency 10ms
config *.gNodeB*.cellularNic.nrMac.handoverLatency 10ms
config *.gNodeB*.cellInfo.broadcastMessageInterval 1s
config *.gNodeB*.numX2Apps 1
config *.gNodeB*.x2App[*].server.localPort "5000 + ancestorIndex(1)"
config *.gNodeB1.x2App[0].client.connectAddress "\"gNodeB2%x2ppp0\""
config *.gNodeB2.x2App[0].client.connectAddress "\"gNodeB1%x2ppp0\""
config **.sctp.nagleEnabled false
config **.sctp.enableHeartbeats false
config *.visualizer.*.obstacleLossVisualizer.displayIntersections true
config *.visualizer.*.obstacleLossVisualizer.displayFaceNormalVectors true
config *.visualizer.*.obstacleLossVisualizer.intersectionLineColor "\"yellow\""
config *.visualizer.*.mediumVisualizer.signalPropagationAnimationSpeed 500/3e8
config *.visualizer.*.mediumVisualizer.signalTransmissionAnimationSpeed 50000/3e8
config *.visualizer.*.mediumVisualizer.displaySignals true
config *.visualizer.canvasVisualizer.mediumVisualizer.displaySignalDepartures false
config *.visualizer.canvasVisualizer.mediumVisualizer.displaySignalArrivals false
config *.visualizer.*.physicalLinkVisualizer.displayLinks true
config **.scalar-recording true
config **.vector-recording true
config **.mobility.tracemobility true
config **.car[*].cellularNic.nrPhy.sinrChanged.vector-recording true
config **.car[*].cellularNic.nrPhy.rsrpChanged.vector-recording true
config **.car[*].cellularNic.nrPhy.rssiChanged.vector-recording true
config **.car[*].cellularNic.nrPhy.cellIdChanged.vector-recording true
config **.car[*].cellularNic.nrMac.handoverStarted.vector-recording true
config **.car[*].cellularNic.nrMac.handoverCompleted.vector-recording true
config **.car[*].app[*].endToEndDelay.vector-recording true
config **.car[*].app[*].throughput.vector-recording true
config **.car[*].udpApp[*].endToEndDelay.vector-recording true
config **.car[*].udpApp[*].throughput.vector-recording true
config **.car[*].cellularNic.rlc.throughput.vector-recording true
config **.car[*].cellularNic.rlc.packetDelay.vector-recording true
config **.gNodeB*.x2App[*].handoverStarted.vector-recording true
config **.gNodeB*.x2App[*].handoverCompleted.vector-recording true
config **.car[*].mobility.posX.vector-recording true
config **.car[*].mobility.posY.vector-recording true
config **.car[*].mobility.posZ.vector-recording true
config **.car[*].mobility.speed.vector-recording true

vector 0 Highway5G.server.ppp[0].queue queueLength:vector ETV
attr autoWarmupFilter false
attr interpolationmode sample-hold
attr recordingmode vector
attr source "warmup(atomic(constant0(packetPushEnded) + count(packetPushStarted) - count(packetPulled) - count(packetRemoved) - count(packetDropped)))"
attr title "queue length"
attr unit pk
0	83339 10465 0 102831 0 5.39 532 0 2 127 161
0	1427117 48 102854 102930 5.39000006 5.391627215238 2 0 0 0 0
vector 1 Highway5G.server.ppp[0].queue queueBitLength:vector ETV
attr autoWarmupFilter false
attr interpolationmode sample-hold
attr recordingmode vector
attr source "warmup(atomic(constant0(packetPushEnded) + sum(packetLength(packetPushStarted)) - sum(packetLength(packetPulled)) - sum(packetLength(packetRemoved)) - sum(packetLength(packetDropped))))"
attr title "queue bit length"
attr unit b
1	93804 10702 0 102831 0 5.39 532 0 1088 69088 47645696
1	1427165 48 102854 102930 5.39000006 5.391627215238 2 0 0 0 0
vector 2 Highway5G.server.ppp[0].ppp transmissionState:vector ETV
attr interpolationmode sample-hold
attr recordingmode vector
attr source transmissionStateChanged
attr title "tx state"
2	104506 18918 0 102830 0 5.39 868 0 1 434 434
2	1427213 118 102854 102931 5.39000006 5.391627275238 5 0 1 2 2
vector 3 Highway5G.server.udp passedUpPk:vector(count) ETV
attr interpolationmode none
attr recordingmode vector(count)
attr source packetSentToUpper
attr title "packets passed up, count"
3	123424 8 0 0 0 0 1 0 0 0 0
vector 4 Highway5G.server.udp droppedPkWrongPort:vector(count) ETV
attr interpolationmode none
attr recordingmode vector(count)
attr source packetDropReasonIsNoPortFound(packetDropped)
attr title "packets dropped (wrong port), count"
4	123432 8 0 0 0 0 1 0 0 0 0
vector 5 Highway5G.server.udp droppedPkBadChecksum:vector(count) ETV
attr interpolationmode none
attr recordingmode vector(count)
attr source packetDropReasonIsIncorrectlyReceived(packetDropped)
attr title "packets dropped (checksum error), count"
5	123440 8 0 0 0 0 1 0 0 0 0
vector 6 Highway5G.router.ppp[0].queue queueLength:vector ETV
attr autoWarmupFilter false
attr interpolationmode sample-hold
attr recordingmode vector
attr source "warmup(atomic(constant0(packetPushEnded) + count(packetPushStarted) - count(packetPulled) - count(packetRemoved) - count(packetDropped)))"
attr title "queue length"
attr unit pk
6	123448 40 0 0 0 0 5 0 0 0 0
vector 7 Highway5G.router.ppp[0].queue queueBitLength:vector ETV
attr autoWarmupFilter false
attr interpolationmode sample-hold
attr recordingmode vector
attr source "warmup(atomic(constant0(packetPushEnded) + sum(packetLength(packetPushStarted)) - sum(packetLength(packetPulled)) - sum(packetLength(packetRemoved)) - sum(packetLength(packetDropped))))"
attr title "queue bit length"
attr unit b
7	123488 40 0 0 0 0 5 0 0 0 0
vector 8 Highway5G.router.ppp[0].ppp transmissionState:vector ETV
attr interpolationmode sample-hold
attr recordingmode vector
attr source transmissionStateChanged
attr title "tx state"
8	123528 8 0 0 0 0 1 0 0 0 0
vector 9 Highway5G.router.ppp[1].queue queueLength:vector ETV
attr autoWarmupFilter false
attr interpolationmode sample-hold
attr recordingmode vector
attr source "warmup(atomic(constant0(packetPushEnded) + count(packetPushStarted) - count(packetPulled) - count(packetRemoved) - count(packetDropped)))"
attr title "queue length"
attr unit pk
9	123536 9925 0 102278 0 5.371627325238 438 0 0 0 0
9	1427331 70 102857 102934 5.39000011 5.391627325238 3 0 0 0 0
vector 10 Highway5G.router.ppp[1].queue queueBitLength:vector ETV
attr autoWarmupFilter false
attr interpolationmode sample-hold
attr recordingmode vector
attr source "warmup(atomic(constant0(packetPushEnded) + sum(packetLength(packetPushStarted)) - sum(packetLength(packetPulled)) - sum(packetLength(packetRemoved)) - sum(packetLength(packetDropped))))"
attr title "queue bit length"
attr unit b
10	133461 10363 0 102278 0 5.371627325238 438 0 0 0 0
10	1427401 73 102857 102934 5.39000011 5.391627325238 3 0 0 0 0
vector 11 Highway5G.router.ppp[1].ppp transmissionState:vector ETV
attr interpolationmode sample-hold
attr recordingmode vector
attr source transmissionStateChanged
attr title "tx state"
11	143824 20645 0 102279 0 5.371627385238 867 0 1 433 433
11	1427474 146 102857 102935 5.39000011 5.391627385238 6 0 1 3 3
vector 12 Highway5G.upf.ppp[0].queue queueLength:vector ETV
attr autoWarmupFilter false
attr interpolationmode sample-hold
attr recordingmode vector
attr source "warmup(atomic(constant0(packetPushEnded) + count(packetPushStarted) - count(packetPulled) - count(packetRemoved) - count(packetDropped)))"
attr title "queue length"
attr unit pk
12	164469 3779 0 98309 0 5.251506291042 167 0 1 35 35
vector 13 Highway5G.upf.ppp[0].queue queueBitLength:vector ETV
attr autoWarmupFilter false
attr interpolationmode sample-hold
attr recordingmode vector
attr source "warmup(atomic(constant0(packetPushEnded) + sum(packetLength(packetPushStarted)) - sum(packetLength(packetPulled)) - sum(packetLength(packetRemoved)) - sum(packetLength(packetDropped))))"
attr title "queue bit length"
attr unit b
13	168248 3849 0 98309 0 5.251506291042 167 0 832 29120 24227840
vector 14 Highway5G.upf.ppp[0].ppp transmissionState:vector ETV
attr interpolationmode sample-hold
attr recordingmode vector
attr source transmissionStateChanged
attr title "tx state"
14	172097 6071 0 98310 0 5.251506379842 255 0 1 127 127
vector 15 Highway5G.upf.ppp[1].queue queueLength:vector ETV
attr autoWarmupFilter false
attr interpolationmode sample-hold
attr recordingmode vector
attr source "warmup(atomic(constant0(packetPushEnded) + count(packetPushStarted) - count(packetPulled) - count(packetRemoved) - count(packetDropped)))"
attr title "queue length"
attr unit pk
15	178168 8433 0 102285 0 5.371627435238 351 0 1 40 40
15	1427620 98 102868 102941 5.39000022 5.391627435238 4 0 1 1 1
vector 16 Highway5G.upf.ppp[1].queue queueBitLength:vector ETV
attr autoWarmupFilter false
attr interpolationmode sample-hold
attr recordingmode vector
attr source "warmup(atomic(constant0(packetPushEnded) + sum(packetLength(packetPushStarted)) - sum(packetLength(packetPulled)) - sum(packetLength(packetRemoved)) - sum(packetLength(packetDropped))))"
attr title "queue bit length"
attr unit b
16	186601 8513 0 102285 0 5.371627435238 351 0 832 33280 27688960
16	1427718 100 102868 102941 5.39000022 5.391627435238 4 0 832 832 692224
vector 17 Highway5G.upf.ppp[1].ppp transmissionState:vector ETV
attr interpolationmode sample-hold
attr recordingmode vector
attr source transmissionStateChanged
attr title "tx state"
17	195114 15209 0 102286 0 5.371627524038 613 0 1 306 306
17	1427818 152 102868 102942 5.39000022 5.391627524038 6 0 1 3 3
vector 18 Highway5G.upf.pppIf.queue queueLength:vector ETV
attr autoWarmupFilter false
attr interpolationmode sample-hold
attr recordingmode vector
attr source "warmup(atomic(constant0(packetPushEnded) + count(packetPushStarted) - count(packetPulled) - count(packetRemoved) - count(packetDropped)))"
attr title "queue length"
attr unit pk
18	210323 45 0 0 0 0 5 0 0 0 0
vector 19 Highway5G.upf.pppIf.queue queueBitLength:vector ETV
attr autoWarmupFilter false
attr interpolationmode sample-hold
attr recordingmode vector
attr source "warmup(atomic(constant0(packetPushEnded) + sum(packetLength(packetPushStarted)) - sum(packetLength(packetPulled)) - sum(packetLength(packetRemoved)) - sum(packetLength(packetDropped))))"
attr title "queue bit length"
attr unit b
19	210368 45 0 0 0 0 5 0 0 0 0
vector 20 Highway5G.upf.pppIf.ppp transmissionState:vector ETV
attr interpolationmode sample-hold
attr recordingmode vector
attr source transmissionStateChanged
attr title "tx state"
20	210413 9 0 0 0 0 1 0 0 0 0
vector 21 Highway5G.upf.udp passedUpPk:vector(count) ETV
attr interpolationmode none
attr recordingmode vector(count)
attr source packetSentToUpper
attr title "packets passed up, count"
21	210422 9 0 0 0 0 1 0 0 0 0
vector 22 Highway5G.upf.udp droppedPkWrongPort:vector(count) ETV
attr interpolationmode none
attr recordingmode vector(count)
attr source packetDropReasonIsNoPortFound(packetDropped)
attr title "packets dropped (wrong port), count"
22	210431 9 0 0 0 0 1 0 0 0 0
vector 23 Highway5G.upf.udp droppedPkBadChecksum:vector(count) ETV
attr interpolationmode none
attr recordingmode vector(count)
attr source packetDropReasonIsIncorrectlyReceived(packetDropped)
attr title "packets dropped (checksum error), count"
23	210440 9 0 0 0 0 1 0 0 0 0
vector 24 Highway5G.gNodeB1.pppIf.queue queueLength:vector ETV
attr autoWarmupFilter false
attr interpolationmode sample-hold
attr recordingmode vector
attr source "warmup(atomic(constant0(packetPushEnded) + count(packetPushStarted) - count(packetPulled) - count(packetRemoved) - count(packetDropped)))"
attr title "queue length"
attr unit pk
24	210449 45 0 0 0 0 5 0 0 0 0
vector 25 Highway5G.gNodeB1.pppIf.queue queueBitLength:vector ETV
attr autoWarmupFilter false
attr interpolationmode sample-hold
attr recordingmode vector
attr source "warmup(atomic(constant0(packetPushEnded) + sum(packetLength(packetPushStarted)) - sum(packetLength(packetPulled)) - sum(packetLength(packetRemoved)) - sum(packetLength(packetDropped))))"
attr title "queue bit length"
attr unit b
25	210494 45 0 0 0 0 5 0 0 0 0
vector 26 Highway5G.gNodeB1.pppIf.ppp transmissionState:vector ETV
attr interpolationmode sample-hold
attr recordingmode vector
attr source transmissionStateChanged
attr title "tx state"
26	210539 9 0 0 0 0 1 0 0 0 0
vector 27 Highway5G.gNodeB1.x2ppp[0].queue queueLength:vector ETV
attr autoWarmupFilter false
attr interpolationmode sample-hold
attr recordingmode vector
attr source "warmup(atomic(constant0(packetPushEnded) + count(packetPushStarted) - count(packetPulled) - count(packetRemoved) - count(packetDropped)))"
attr title "queue length"
attr unit pk
27	210548 118 0 70 0 0.0000004708 9 0 0 0 0
vector 28 Highway5G.gNodeB1.x2ppp[0].queue queueBitLength:vector ETV
attr autoWarmupFilter false
attr interpolationmode sample-hold
attr recordingmode vector
attr source "warmup(atomic(constant0(packetPushEnded) + sum(packetLength(packetPushStarted)) - sum(packetLength(packetPulled)) - sum(packetLength(packetRemoved)) - sum(packetLength(packetDropped))))"
attr title "queue bit length"
attr unit b
28	210666 118 0 70 0 0.0000004708 9 0 0 0 0
vector 29 Highway5G.gNodeB1.x2ppp[0].ppp transmissionState:vector ETV
attr interpolationmode sample-hold
attr recordingmode vector
attr source transmissionStateChanged
attr title "tx state"
29	210784 166 0 74 0 0.0000005052 9 0 1 4 4
vector 30 Highway5G.gNodeB1.pppMEHostIf.queue queueLength:vector ETV
attr autoWarmupFilter false
attr interpolationmode sample-hold
attr recordingmode vector
attr source "warmup(atomic(constant0(packetPushEnded) + count(packetPushStarted) - count(packetPulled) - count(packetRemoved) - count(packetDropped)))"
attr title "queue length"
attr unit pk
30	210950 45 0 0 0 0 5 0 0 0 0
vector 31 Highway5G.gNodeB1.pppMEHostIf.queue queueBitLength:vector ETV
attr autoWarmupFilter false
attr interpolationmode sample-hold
attr recordingmode vector
attr source "warmup(atomic(constant0(packetPushEnded) + sum(packetLength(packetPushStarted)) - sum(packetLength(packetPulled)) - sum(packetLength(packetRemoved)) - sum(packetLength(packetDropped))))"
attr title "queue bit length"
attr unit b
31	210995 45 0 0 0 0 5 0 0 0 0
vector 32 Highway5G.gNodeB1.pppMEHostIf.ppp transmissionState:vector ETV
attr interpolationmode sample-hold
attr recordingmode vector
attr source transmissionStateChanged
attr title "tx state"
32	211040 9 0 0 0 0 1 0 0 0 0
vector 33 Highway5G.gNodeB1.udp passedUpPk:vector(count) ETV
attr interpolationmode none
attr recordingmode vector(count)
attr source packetSentToUpper
attr title "packets passed up, count"
33	211049 3253 0 98313 0 5.251506429842 128 0 127 8128 690880
vector 34 Highway5G.gNodeB1.udp droppedPkWrongPort:vector(count) ETV
attr interpolationmode none
attr recordingmode vector(count)
attr source packetDropReasonIsNoPortFound(packetDropped)
attr title "packets dropped (wrong port), count"
34	214302 9 0 0 0 0 1 0 0 0 0
vector 35 Highway5G.gNodeB1.udp droppedPkBadChecksum:vector(count) ETV
attr interpolationmode none
attr recordingmode vector(count)
attr source packetDropReasonIsIncorrectlyReceived(packetDropped)
attr title "packets dropped (checksum error), count"
35	214311 9 0 0 0 0 1 0 0 0 0
vector 36 Highway5G.gNodeB2.pppIf.queue queueLength:vector ETV
attr autoWarmupFilter false
attr interpolationmode sample-hold
attr recordingmode vector
attr source "warmup(atomic(constant0(packetPushEnded) + count(packetPushStarted) - count(packetPulled) - count(packetRemoved) - count(packetDropped)))"
attr title "queue length"
attr unit pk
36	214320 45 0 0 0 0 5 0 0 0 0
vector 37 Highway5G.gNodeB2.pppIf.queue queueBitLength:vector ETV
attr autoWarmupFilter false
attr interpolationmode sample-hold
attr recordingmode vector
attr source "warmup(atomic(constant0(packetPushEnded) + sum(packetLength(packetPushStarted)) - sum(packetLength(packetPulled)) - sum(packetLength(packetRemoved)) - sum(packetLength(packetDropped))))"
attr title "queue bit length"
attr unit b
37	214365 45 0 0 0 0 5 0 0 0 0
vector 38 Highway5G.gNodeB2.pppIf.ppp transmissionState:vector ETV
attr interpolationmode sample-hold
attr recordingmode vector
attr source transmissionStateChanged
attr title "tx state"
38	214410 9 0 0 0 0 1 0 0 0 0
vector 39 Highway5G.gNodeB2.x2ppp[0].queue queueLength:vector ETV
attr autoWarmupFilter false
attr interpolationmode sample-hold
attr recordingmode vector
attr source "warmup(atomic(constant0(packetPushEnded) + count(packetPushStarted) - count(packetPulled) - count(packetRemoved) - count(packetDropped)))"
attr title "queue length"
attr unit pk
39	214419 118 0 68 0 0.0000004708 9 0 0 0 0
vector 40 Highway5G.gNodeB2.x2ppp[0].queue queueBitLength:vector ETV
attr autoWarmupFilter false
attr interpolationmode sample-hold
attr recordingmode vector
attr source "warmup(atomic(constant0(packetPushEnded) + sum(packetLength(packetPushStarted)) - sum(packetLength(packetPulled)) - sum(packetLength(packetRemoved)) - sum(packetLength(packetDropped))))"
attr title "queue bit length"
attr unit b
40	214537 118 0 68 0 0.0000004708 9 0 0 0 0
vector 41 Highway5G.gNodeB2.x2ppp[0].ppp transmissionState:vector ETV
attr interpolationmode sample-hold
attr recordingmode vector
attr source transmissionStateChanged
attr title "tx state"
41	214655 166 0 73 0 0.0000005052 9 0 1 4 4
vector 42 Highway5G.gNodeB2.pppMEHostIf.queue queueLength:vector ETV
attr autoWarmupFilter false
attr interpolationmode sample-hold
attr recordingmode vector
attr source "warmup(atomic(constant0(packetPushEnded) + count(packetPushStarted) - count(packetPulled) - count(packetRemoved) - count(packetDropped)))"
attr title "queue length"
attr unit pk
42	214821 45 0 0 0 0 5 0 0 0 0
vector 43 Highway5G.gNodeB2.pppMEHostIf.queue queueBitLength:vector ETV
attr autoWarmupFilter false
attr interpolationmode sample-hold
attr recordingmode vector
attr source "warmup(atomic(constant0(packetPushEnded) + sum(packetLength(packetPushStarted)) - sum(packetLength(packetPulled)) - sum(packetLength(packetRemoved)) - sum(packetLength(packetDropped))))"
attr title "queue bit length"
attr unit b
43	214866 45 0 0 0 0 5 0 0 0 0
vector 44 Highway5G.gNodeB2.pppMEHostIf.ppp transmissionState:vector ETV
attr interpolationmode sample-hold
attr recordingmode vector
attr source transmissionStateChanged
attr title "tx state"
44	214911 9 0 0 0 0 1 0 0 0 0
vector 45 Highway5G.gNodeB2.udp passedUpPk:vector(count) ETV
attr interpolationmode none
attr recordingmode vector(count)
attr source packetSentToUpper
attr title "packets passed up, count"
45	214920 8209 0 102289 0 5.371627574038 307 0 306 46971 9597741
45	1427970 83 102879 102945 5.3900003588 5.391627574038 3 307 309 924 284594
vector 46 Highway5G.gNodeB2.udp droppedPkWrongPort:vector(count) ETV
attr interpolationmode none
attr recordingmode vector(count)
attr source packetDropReasonIsNoPortFound(packetDropped)
attr title "packets dropped (wrong port), count"
46	223129 9 0 0 0 0 1 0 0 0 0
vector 47 Highway5G.gNodeB2.udp droppedPkBadChecksum:vector(count) ETV
attr interpolationmode none
attr recordingmode vector(count)
attr source packetDropReasonIsIncorrectlyReceived(packetDropped)
attr title "packets dropped (checksum error), count"
47	223138 9 0 0 0 0 1 0 0 0 0
vector 48 Highway5G.gNodeB1.sctp "Throughput of Association 68" ETV
48	223147 10 11 11 0 0 1 0 0 0 0
vector 49 Highway5G.gNodeB2.sctp "Throughput of Association 69" ETV
49	223157 10 16 16 0 0 1 0 0 0 0
vector 50 Highway5G.gNodeB1.sctp "Throughput of Association 49" ETV
50	223167 10 19 19 0 0 1 0 0 0 0
vector 51 Highway5G.gNodeB1.sctp "Fast Recovery State 49:192.168.4.2" ETV
51	223177 10 19 19 0 0 1 0 0 0 0
vector 52 Highway5G.gNodeB2.sctp "Throughput of Association 53" ETV
52	223187 10 20 20 0 0 1 0 0 0 0
vector 53 Highway5G.gNodeB2.sctp "Fast Recovery State 53:192.168.4.1" ETV
53	223197 10 20 20 0 0 1 0 0 0 0
vector 54 Highway5G.gNodeB1.x2ppp[0].queue incomingPacketLengths:vector ETV
attr interpolationmode none
attr recordingmode vector
attr source packetLength(packetPushStarted)
attr title "incoming packet lengths"
attr unit b
54	223207 82 27 70 0 0.0000004708 4 288 1376 3328 3379200
vector 55 Highway5G.gNodeB1.x2ppp[0].queue queueingTime:vector ETV
attr interpolationmode none
attr recordingmode vector
attr source queueingTime(packetPulled)
attr title "queueing times"
attr unit s
55	223289 73 27 70 0 0.0000004708 4 0 0 0 0
vector 56 Highway5G.gNodeB1.x2ppp[0].queue outgoingPacketLengths:vector ETV
attr interpolationmode none
attr recordingmode vector
attr source packetLength(packetPulled)
attr title "outgoing packet lengths"
attr unit b
56	223362 82 27 70 0 0.0000004708 4 288 1376 3328 3379200
vector 57 Highway5G.gNodeB1.x2ppp[0].ppp rcvdPkFromHl:vector(packetBytes) ETV
attr interpolationmode none
attr recordingmode vector(packetBytes)
attr source packetReceivedFromUpper
attr title "packets received from higher layer, packetBytes"
57	223444 79 27 70 0 0.0000004708 4 36 172 416 52800
vector 58 Highway5G.gNodeB1.x2ppp[0].ppp txPk:vector(packetBytes) ETV
attr interpolationmode none
attr recordingmode vector(packetBytes)
attr source packetSentToLower
attr title "packets transmitted, packetBytes"
58	223523 79 27 70 0 0.0000004708 4 43 179 444 58820
vector 59 Highway5G.gNodeB2.x2ppp[0].queue incomingPacketLengths:vector ETV
attr interpolationmode none
attr recordingmode vector
attr source packetLength(packetPushStarted)
attr title "incoming packet lengths"
attr unit b
59	223602 82 28 68 0 0.0000004708 4 288 1376 3328 3379200
vector 60 Highway5G.gNodeB2.x2ppp[0].queue queueingTime:vector ETV
attr interpolationmode none
attr recordingmode vector
attr source queueingTime(packetPulled)
attr title "queueing times"
attr unit s
60	223684 73 28 68 0 0.0000004708 4 0 0 0 0
vector 61 Highway5G.gNodeB2.x2ppp[0].queue outgoingPacketLengths:vector ETV
attr interpolationmode none
attr recordingmode vector
attr source packetLength(packetPulled)
attr title "outgoing packet lengths"
attr unit b
61	223757 82 28 68 0 0.0000004708 4 288 1376 3328 3379200
vector 62 Highway5G.gNodeB2.x2ppp[0].ppp rcvdPkFromHl:vector(packetBytes) ETV
attr interpolationmode none
attr recordingmode vector(packetBytes)
attr source packetReceivedFromUpper
attr title "packets received from higher layer, packetBytes"
62	223839 79 28 68 0 0.0000004708 4 36 172 416 52800
vector 63 Highway5G.gNodeB2.x2ppp[0].ppp txPk:vector(packetBytes) ETV
attr interpolationmode none
attr recordingmode vector(packetBytes)
attr source packetSentToLower
attr title "packets transmitted, packetBytes"
63	223918 79 28 68 0 0.0000004708 4 43 179 444 58820
vector 64 Highway5G.gNodeB2.x2ppp[0].ppp rxPkOk:vector(packetBytes) ETV
attr interpolationmode none
attr recordingmode vector(packetBytes)
attr source rxPkOk
attr title "packets received OK, packetBytes"
64	223997 90 33 76 0.0000001292 0.0000005552 4 43 179 444 58820
vector 65 Highway5G.gNodeB2.x2ppp[0].ppp passedUpPk:vector(packetBytes) ETV
attr interpolationmode none
attr recordingmode vector(packetBytes)
attr source packetSentToUpper
attr title "packets passed to higher layer, packetBytes"
65	224087 90 33 76 0.0000001292 0.0000005552 4 36 172 416 52800
vector 66 Highway5G.gNodeB1.x2ppp[0].ppp rxPkOk:vector(packetBytes) ETV
attr interpolationmode none
attr recordingmode vector(packetBytes)
attr source rxPkOk
attr title "packets received OK, packetBytes"
66	224177 90 34 75 0.0000001292 0.0000005552 4 43 179 444 58820
vector 67 Highway5G.gNodeB1.x2ppp[0].ppp passedUpPk:vector(packetBytes) ETV
attr interpolationmode none
attr recordingmode vector(packetBytes)
attr source packetSentToUpper
attr title "packets passed to higher layer, packetBytes"
67	224267 90 34 75 0.0000001292 0.0000005552 4 36 172 416 52800
vector 68 Highway5G.gNodeB2.sctp "Throughput of Association 69" ETV
68	224357 21 37 37 0.0000001292 0.0000001292 1 0 0 0 0
vector 69 Highway5G.gNodeB2.sctp "Peer Rwnd 69" ETV
69	224378 25 37 37 0.0000001292 0.0000001292 1 65535 65535 65535 4294836225
vector 70 Highway5G.gNodeB2.sctp "Fast Recovery State 70:10.0.0.1" ETV
70	224403 21 37 37 0.0000001292 0.0000001292 1 0 0 0 0
vector 71 Highway5G.gNodeB2.sctp "Fast Recovery State 70:192.168.2.2" ETV
71	224424 21 37 37 0.0000001292 0.0000001292 1 0 0 0 0
vector 72 Highway5G.gNodeB2.sctp "Fast Recovery State 70:192.168.4.1" ETV
72	224445 21 37 37 0.0000001292 0.0000001292 1 0 0 0 0
vector 73 Highway5G.gNodeB2.sctp "Fast Recovery State 70:192.168.5.1" ETV
73	224466 21 37 37 0.0000001292 0.0000001292 1 0 0 0 0
vector 74 Highway5G.gNodeB1.sctp "Throughput of Association 68" ETV
74	224487 21 38 38 0.0000001292 0.0000001292 1 0 0 0 0
vector 75 Highway5G.gNodeB1.sctp "Peer Rwnd 68" ETV
75	224508 25 38 38 0.0000001292 0.0000001292 1 65535 65535 65535 4294836225
vector 76 Highway5G.gNodeB1.sctp "Fast Recovery State 71:10.0.0.2" ETV
76	224533 21 38 38 0.0000001292 0.0000001292 1 0 0 0 0
vector 77 Highway5G.gNodeB1.sctp "Fast Recovery State 71:192.168.3.2" ETV
77	224554 21 38 38 0.0000001292 0.0000001292 1 0 0 0 0
vector 78 Highway5G.gNodeB1.sctp "Fast Recovery State 71:192.168.4.2" ETV
78	224575 21 38 38 0.0000001292 0.0000001292 1 0 0 0 0
vector 79 Highway5G.gNodeB1.sctp "Fast Recovery State 71:192.168.6.1" ETV
79	224596 21 38 38 0.0000001292 0.0000001292 1 0 0 0 0
vector 80 Highway5G.gNodeB1.sctp "Peer Rwnd 49" ETV
80	224617 25 49 49 0.0000003224 0.0000003224 1 65535 65535 65535 4294836225
vector 81 Highway5G.gNodeB1.sctp "Fast Recovery State 49:10.0.0.2" ETV
81	224642 21 49 49 0.0000003224 0.0000003224 1 0 0 0 0
vector 82 Highway5G.gNodeB1.sctp "Fast Recovery State 49:192.168.3.2" ETV
82	224663 21 49 49 0.0000003224 0.0000003224 1 0 0 0 0
vector 83 Highway5G.gNodeB1.sctp "Fast Recovery State 49:192.168.6.1" ETV
83	224684 21 49 49 0.0000003224 0.0000003224 1 0 0 0 0
vector 84 Highway5G.gNodeB2.sctp "Peer Rwnd 53" ETV
84	224705 25 50 50 0.0000003224 0.0000003224 1 65535 65535 65535 4294836225
vector 85 Highway5G.gNodeB2.sctp "Fast Recovery State 53:10.0.0.1" ETV
85	224730 21 50 50 0.0000003224 0.0000003224 1 0 0 0 0
vector 86 Highway5G.gNodeB2.sctp "Fast Recovery State 53:192.168.2.2" ETV
86	224751 21 50 50 0.0000003224 0.0000003224 1 0 0 0 0
vector 87 Highway5G.gNodeB2.sctp "Fast Recovery State 53:192.168.5.1" ETV
87	224772 21 50 50 0.0000003224 0.0000003224 1 0 0 0 0
vector 88 Highway5G.gNodeB2.sctp "Slow Start Threshold 70:10.0.0.1" ETV
88	224793 25 61 61 0.0000004708 0.0000004708 1 65535 65535 65535 4294836225
vector 89 Highway5G.gNodeB2.sctp "Congestion Window 70:10.0.0.1" ETV
89	224818 24 61 61 0.0000004708 0.0000004708 1 4380 4380 4380 19184400
vector 90 Highway5G.gNodeB2.sctp "Bandwidth 70:10.0.0.1" ETV
90	224842 26 61 61 0.0000004708 0.0000004708 1 0.1825 0.1825 0.1825 0.03330625
vector 91 Highway5G.gNodeB2.sctp "RTO 70:10.0.0.1" ETV
91	224868 21 61 61 0.0000004708 0.0000004708 1 3 3 3 9
vector 92 Highway5G.gNodeB2.sctp "Slow Start Threshold 70:192.168.2.2" ETV
92	224889 25 61 61 0.0000004708 0.0000004708 1 65535 65535 65535 4294836225
vector 93 Highway5G.gNodeB2.sctp "Congestion Window 70:192.168.2.2" ETV
93	224914 24 61 61 0.0000004708 0.0000004708 1 8940 8940 8940 79923600
vector 94 Highway5G.gNodeB2.sctp "Bandwidth 70:192.168.2.2" ETV
94	224938 26 61 61 0.0000004708 0.0000004708 1 0.3725 0.3725 0.3725 0.13875625
vector 95 Highway5G.gNodeB2.sctp "RTO 70:192.168.2.2" ETV
95	224964 21 61 61 0.0000004708 0.0000004708 1 3 3 3 9
vector 96 Highway5G.gNodeB2.sctp "Slow Start Threshold 70:192.168.4.1" ETV
96	224985 25 61 61 0.0000004708 0.0000004708 1 65535 65535 65535 4294836225
vector 97 Highway5G.gNodeB2.sctp "Congestion Window 70:192.168.4.1" ETV
97	225010 24 61 61 0.0000004708 0.0000004708 1 8940 8940 8940 79923600
vector 98 Highway5G.gNodeB2.sctp "Bandwidth 70:192.168.4.1" ETV
98	225034 26 61 61 0.0000004708 0.0000004708 1 0.3725 0.3725 0.3725 0.13875625
vector 99 Highway5G.gNodeB2.sctp "RTO 70:192.168.4.1" ETV
99	225060 21 61 61 0.0000004708 0.0000004708 1 3 3 3 9
vector 100 Highway5G.gNodeB2.sctp "Slow Start Threshold 70:192.168.5.1" ETV
100	225081 26 61 61 0.0000004708 0.0000004708 1 65535 65535 65535 4294836225
vector 101 Highway5G.gNodeB2.sctp "Congestion Window 70:192.168.5.1" ETV
101	225107 25 61 61 0.0000004708 0.0000004708 1 8940 8940 8940 79923600
vector 102 Highway5G.gNodeB2.sctp "Bandwidth 70:192.168.5.1" ETV
102	225132 27 61 61 0.0000004708 0.0000004708 1 0.3725 0.3725 0.3725 0.13875625
vector 103 Highway5G.gNodeB2.sctp "RTO 70:192.168.5.1" ETV
103	225159 22 61 61 0.0000004708 0.0000004708 1 3 3 3 9
vector 104 Highway5G.gNodeB1.sctp "Slow Start Threshold 71:10.0.0.2" ETV
104	225181 26 62 62 0.0000004708 0.0000004708 1 65535 65535 65535 4294836225
vector 105 Highway5G.gNodeB1.sctp "Congestion Window 71:10.0.0.2" ETV
105	225207 25 62 62 0.0000004708 0.0000004708 1 4380 4380 4380 19184400
vector 106 Highway5G.gNodeB1.sctp "Bandwidth 71:10.0.0.2" ETV
106	225232 27 62 62 0.0000004708 0.0000004708 1 0.1825 0.1825 0.1825 0.03330625
vector 107 Highway5G.gNodeB1.sctp "RTO 71:10.0.0.2" ETV
107	225259 22 62 62 0.0000004708 0.0000004708 1 3 3 3 9
vector 108 Highway5G.gNodeB1.sctp "Slow Start Threshold 71:192.168.3.2" ETV
108	225281 26 62 62 0.0000004708 0.0000004708 1 65535 65535 65535 4294836225
vector 109 Highway5G.gNodeB1.sctp "Congestion Window 71:192.168.3.2" ETV
109	225307 25 62 62 0.0000004708 0.0000004708 1 8940 8940 8940 79923600
vector 110 Highway5G.gNodeB1.sctp "Bandwidth 71:192.168.3.2" ETV
110	225332 27 62 62 0.0000004708 0.0000004708 1 0.3725 0.3725 0.3725 0.13875625
vector 111 Highway5G.gNodeB1.sctp "RTO 71:192.168.3.2" ETV
111	225359 22 62 62 0.0000004708 0.0000004708 1 3 3 3 9
vector 112 Highway5G.gNodeB1.sctp "Slow Start Threshold 71:192.168.4.2" ETV
112	225381 26 62 62 0.0000004708 0.0000004708 1 65535 65535 65535 4294836225
vector 113 Highway5G.gNodeB1.sctp "Congestion Window 71:192.168.4.2" ETV
113	225407 25 62 62 0.0000004708 0.0000004708 1 8940 8940 8940 79923600
vector 114 Highway5G.gNodeB1.sctp "Bandwidth 71:192.168.4.2" ETV
114	225432 27 62 62 0.0000004708 0.0000004708 1 0.3725 0.3725 0.3725 0.13875625
vector 115 Highway5G.gNodeB1.sctp "RTO 71:192.168.4.2" ETV
115	225459 22 62 62 0.0000004708 0.0000004708 1 3 3 3 9
vector 116 Highway5G.gNodeB1.sctp "Slow Start Threshold 71:192.168.6.1" ETV
116	225481 26 62 62 0.0000004708 0.0000004708 1 65535 65535 65535 4294836225
vector 117 Highway5G.gNodeB1.sctp "Congestion Window 71:192.168.6.1" ETV
117	225507 25 62 62 0.0000004708 0.0000004708 1 8940 8940 8940 79923600
vector 118 Highway5G.gNodeB1.sctp "Bandwidth 71:192.168.6.1" ETV
118	225532 27 62 62 0.0000004708 0.0000004708 1 0.3725 0.3725 0.3725 0.13875625
vector 119 Highway5G.gNodeB1.sctp "RTO 71:192.168.6.1" ETV
119	225559 22 62 62 0.0000004708 0.0000004708 1 3 3 3 9
vector 120 Highway5G.gNodeB1.sctp "Slow Start Threshold 49:10.0.0.2" ETV
120	225581 26 79 79 0.0000005552 0.0000005552 1 65535 65535 65535 4294836225
vector 121 Highway5G.gNodeB1.sctp "Congestion Window 49:10.0.0.2" ETV
121	225607 25 79 79 0.0000005552 0.0000005552 1 4380 4380 4380 19184400
vector 122 Highway5G.gNodeB1.sctp "Bandwidth 49:10.0.0.2" ETV
122	225632 27 79 79 0.0000005552 0.0000005552 1 0.1825 0.1825 0.1825 0.03330625
vector 123 Highway5G.gNodeB1.sctp "RTO 49:10.0.0.2" ETV
123	225659 22 79 79 0.0000005552 0.0000005552 1 3 3 3 9
vector 124 Highway5G.gNodeB1.sctp "Slow Start Threshold 49:192.168.3.2" ETV
124	225681 26 79 79 0.0000005552 0.0000005552 1 65535 65535 65535 4294836225
vector 125 Highway5G.gNodeB1.sctp "Congestion Window 49:192.168.3.2" ETV
125	225707 25 79 79 0.0000005552 0.0000005552 1 8940 8940 8940 79923600
vector 126 Highway5G.gNodeB1.sctp "Bandwidth 49:192.168.3.2" ETV
126	225732 27 79 79 0.0000005552 0.0000005552 1 0.3725 0.3725 0.3725 0.13875625
vector 127 Highway5G.gNodeB1.sctp "RTO 49:192.168.3.2" ETV
127	225759 22 79 79 0.0000005552 0.0000005552 1 3 3 3 9
vector 128 Highway5G.gNodeB1.sctp "Slow Start Threshold 49:192.168.4.2" ETV
128	225781 26 79 79 0.0000005552 0.0000005552 1 65535 65535 65535 4294836225
vector 129 Highway5G.gNodeB1.sctp "Congestion Window 49:192.168.4.2" ETV
129	225807 25 79 79 0.0000005552 0.0000005552 1 8940 8940 8940 79923600
vector 130 Highway5G.gNodeB1.sctp "Bandwidth 49:192.168.4.2" ETV
130	225832 27 79 79 0.0000005552 0.0000005552 1 0.3725 0.3725 0.3725 0.13875625
vector 131 Highway5G.gNodeB1.sctp "RTO 49:192.168.4.2" ETV
131	225859 22 79 79 0.0000005552 0.0000005552 1 3 3 3 9
vector 132 Highway5G.gNodeB1.sctp "Slow Start Threshold 49:192.168.6.1" ETV
132	225881 26 79 79 0.0000005552 0.0000005552 1 65535 65535 65535 4294836225
vector 133 Highway5G.gNodeB1.sctp "Congestion Window 49:192.168.6.1" ETV
133	225907 25 79 79 0.0000005552 0.0000005552 1 8940 8940 8940 79923600
vector 134 Highway5G.gNodeB1.sctp "Bandwidth 49:192.168.6.1" ETV
134	225932 27 79 79 0.0000005552 0.0000005552 1 0.3725 0.3725 0.3725 0.13875625
vector 135 Highway5G.gNodeB1.sctp "RTO 49:192.168.6.1" ETV
135	225959 22 79 79 0.0000005552 0.0000005552 1 3 3 3 9
vector 136 Highway5G.gNodeB2.sctp "Slow Start Threshold 53:10.0.0.1" ETV
136	225981 26 80 80 0.0000005552 0.0000005552 1 65535 65535 65535 4294836225
vector 137 Highway5G.gNodeB2.sctp "Congestion Window 53:10.0.0.1" ETV
137	226007 25 80 80 0.0000005552 0.0000005552 1 4380 4380 4380 19184400
vector 138 Highway5G.gNodeB2.sctp "Bandwidth 53:10.0.0.1" ETV
138	226032 27 80 80 0.0000005552 0.0000005552 1 0.1825 0.1825 0.1825 0.03330625
vector 139 Highway5G.gNodeB2.sctp "RTO 53:10.0.0.1" ETV
139	226059 22 80 80 0.0000005552 0.0000005552 1 3 3 3 9
vector 140 Highway5G.gNodeB2.sctp "Slow Start Threshold 53:192.168.2.2" ETV
140	226081 26 80 80 0.0000005552 0.0000005552 1 65535 65535 65535 4294836225
vector 141 Highway5G.gNodeB2.sctp "Congestion Window 53:192.168.2.2" ETV
141	226107 25 80 80 0.0000005552 0.0000005552 1 8940 8940 8940 79923600
vector 142 Highway5G.gNodeB2.sctp "Bandwidth 53:192.168.2.2" ETV
142	226132 27 80 80 0.0000005552 0.0000005552 1 0.3725 0.3725 0.3725 0.13875625
vector 143 Highway5G.gNodeB2.sctp "RTO 53:192.168.2.2" ETV
143	226159 22 80 80 0.0000005552 0.0000005552 1 3 3 3 9
vector 144 Highway5G.gNodeB2.sctp "Slow Start Threshold 53:192.168.4.1" ETV
144	226181 26 80 80 0.0000005552 0.0000005552 1 65535 65535 65535 4294836225
vector 145 Highway5G.gNodeB2.sctp "Congestion Window 53:192.168.4.1" ETV
145	226207 25 80 80 0.0000005552 0.0000005552 1 8940 8940 8940 79923600
vector 146 Highway5G.gNodeB2.sctp "Bandwidth 53:192.168.4.1" ETV
146	226232 27 80 80 0.0000005552 0.0000005552 1 0.3725 0.3725 0.3725 0.13875625
vector 147 Highway5G.gNodeB2.sctp "RTO 53:192.168.4.1" ETV
147	226259 22 80 80 0.0000005552 0.0000005552 1 3 3 3 9
vector 148 Highway5G.gNodeB2.sctp "Slow Start Threshold 53:192.168.5.1" ETV
148	226281 26 80 80 0.0000005552 0.0000005552 1 65535 65535 65535 4294836225
vector 149 Highway5G.gNodeB2.sctp "Congestion Window 53:192.168.5.1" ETV
149	226307 25 80 80 0.0000005552 0.0000005552 1 8940 8940 8940 79923600
vector 150 Highway5G.gNodeB2.sctp "Bandwidth 53:192.168.5.1" ETV
150	226332 27 80 80 0.0000005552 0.0000005552 1 0.3725 0.3725 0.3725 0.13875625
vector 151 Highway5G.gNodeB2.sctp "RTO 53:192.168.5.1" ETV
151	226359 22 80 80 0.0000005552 0.0000005552 1 3 3 3 9
vector 152 Highway5G.gNodeB1.cellularNic.mac avgServedBlocksUl:vector ETV
attr recordingmode vector
attr source avgServedBlocksUl
attr title "Avg Served Blocks Ul"
attr unit blocks
152	226381 95243 83 102846 0.001 5.39 5390 0 0 0 0
152	1428053 188 102913 103230 5.391 5.4 10 0 0 0 0
vector 153 Highway5G.gNodeB1.cellularNic.mac avgServedBlocksDl:vector ETV
attr recordingmode vector
attr source avgServedBlocksDl
attr title "Avg Served Blocks Dl"
attr unit blocks
153	321624 95243 83 102846 0.001 5.39 5390 0 2 127 197
153	1428241 188 102913 103230 5.391 5.4 10 0 0 0 0
vector 154 Highway5G.gNodeB2.cellularNic.mac avgServedBlocksUl:vector ETV
attr recordingmode vector
attr source avgServedBlocksUl
attr title "Avg Served Blocks Ul"
attr unit blocks
154	416867 95244 84 102847 0.001 5.39 5390 0 0 0 0
154	1428429 188 102914 103231 5.391 5.4 10 0 0 0 0
vector 155 Highway5G.gNodeB2.cellularNic.mac avgServedBlocksDl:vector ETV
attr recordingmode vector
attr source avgServedBlocksDl
attr title "Avg Served Blocks Dl"
attr unit blocks
155	512111 95244 84 102847 0.001 5.39 5390 0 2 306 386
155	1428617 188 102914 103231 5.391 5.4 10 0 2 3 5
vector 156 Highway5G.car[0].udp passedUpPk:vector(count) ETV
attr interpolationmode none
attr recordingmode vector(count)
attr source packetSentToUpper
attr title "packets passed up, count"
156	607355 2771 9402 102437 1.1 5.376 144 0 143 10296 984984
156	1428805 21 103092 103092 5.396 5.396 1 144 144 144 20736
vector 157 Highway5G.car[0].udp droppedPkWrongPort:vector(count) ETV
attr interpolationmode none
attr recordingmode vector(count)
attr source packetDropReasonIsNoPortFound(packetDropped)
attr title "packets dropped (wrong port), count"
157	610126 15 9402 9402 1.1 1.1 1 0 0 0 0
vector 158 Highway5G.car[0].udp droppedPkBadChecksum:vector(count) ETV
attr interpolationmode none
attr recordingmode vector(count)
attr source packetDropReasonIsIncorrectlyReceived(packetDropped)
attr title "packets dropped (checksum error), count"
158	610141 15 9402 9402 1.1 1.1 1 0 0 0 0
vector 159 Highway5G.car[0].cellularNic.phy servingCell:vector ETV
attr recordingmode vector
attr source servingCell
attr title "ID of the serving eNodeB for the UE"
attr unit ""
159	610156 15 9402 9402 1.1 1.1 1 0 0 0 0
vector 160 Highway5G.car[0].cellularNic.nrChannelModel[0] distance:vector ETV
attr recordingmode vector
attr source distance
attr title "distance between UE and serving base station"
attr unit meters
160	610171 4766 9402 102351 1.1 5.373 153 280.94112470572 701.4726953335 47102.336959427 15300396.226787
160	1428826 33 103007 103007 5.393 5.393 1 280.94112470572 280.94112470572 280.94112470572 78927.915550915
vector 161 Highway5G.car[0].cellularNic.nrPhy servingCell:vector ETV
attr recordingmode vector
attr source servingCell
attr title "ID of the serving eNodeB for the UE"
attr unit ""
161	614937 15 9402 9402 1.1 1.1 1 2 2 2 4
vector 162 Highway5G.car[0].cellularNic.nrChannelModel[0] measuredSinrUl:vector ETV
attr recordingmode vector
attr source measuredSinrUl
attr title "SINR measured at feedback computation, UL"
attr unit dB
162	614952 22564 9468 102713 1.102 5.386 715 13.104542207859 32.621490218358 17638.038839491 465483.36760396
162	1428859 66 102977 103149 5.392 5.398 2 32.621490218358 32.621490218358 65.242980436716 2128.3232481329
vector 163 Highway5G.car[0].cellularNic.nrChannelModel[0] measuredSinrDl:vector ETV
attr recordingmode vector
attr source measuredSinrDl
attr title "SINR measured at feedback computation, DL"
attr unit dB
163	637516 22727 9468 102713 1.102 5.386 715 40.254629215433 52.641883851684 31943.096934039 1437612.2345857
163	1428925 66 102977 103149 5.392 5.398 2 52.641883851684 52.641883851684 105.28376770337 5542.3358709084
vector 164 Highway5G.gNodeB2.cellularNic.mac receivedPacketFromLowerLayer:vector(packetBytes) ETV
attr interpolationmode none
attr recordingmode vector(packetBytes)
attr source receivedPacketFromLowerLayer
164	660243 36574 9469 102853 1.102 5.39 2049 1 1 2049 2049
164	1428991 209 102978 103154 5.392 5.398 11 1 1 11 11
vector 165 Highway5G.server.app[0] voIPGeneratedThroughput:vector ETV
attr recordingmode vector
attr source voIPGeneratedThroughput
attr title "Throughput generated by the application"
attr unit Bps
165	696817 5657 10003 102271 1.15 5.371627215238 143 34.782608695652 1064.8542370501 110628.54860968 94135099.720871
165	1429200 42 102927 102927 5.391627215238 5.391627215238 1 1068.3231184309 1068.3231184309 1068.3231184309 1141314.2853739
vector 166 Highway5G.server.udp packetSent:vector(packetBytes) ETV
attr interpolationmode none
attr recordingmode vector(packetBytes)
attr source packetSent
attr title "packets sent, packetBytes"
166	702474 9794 10004 102827 1.15 5.39 435 48 48 20880 1002240
166	1429242 29 102928 102928 5.391627215238 5.391627215238 1 48 48 48 2304
vector 167 Highway5G.server.ppp[0].queue incomingPacketLengths:vector ETV
attr interpolationmode none
attr recordingmode vector
attr source packetLength(packetPushStarted)
attr title "incoming packet lengths"
attr unit b
167	712268 10229 10006 102831 1.15 5.39 435 544 544 236640 128732160
167	1429271 30 102930 102930 5.391627215238 5.391627215238 1 544 544 544 295936
vector 168 Highway5G.server.ppp[0].queue incomingDataRate:vector ETV
attr interpolationmode linear
attr recordingmode vector
attr source throughput(packetPushStarted)
attr title "incoming datarate"
attr unit bps
168	722497 999 10006 100209 0.1 5.3 53 0 130560 2290240 179840307200
168	1437907 40 103240 103240 5.4 5.401 2 0 81600 81600 6658560000
vector 169 Highway5G.server.ppp[0].queue queueingTime:vector ETV
attr interpolationmode none
attr recordingmode vector
attr source queueingTime(packetPulled)
attr title "queueing times"
attr unit s
169	723496 10295 10006 102830 1.15 5.39 434 0 1.2e-07 6.54e-06 5.148e-13
169	1429301 56 102854 102930 5.39000006 5.391627215238 2 0 6e-08 6e-08 3.6e-15
vector 170 Highway5G.server.ppp[0].queue outgoingPacketLengths:vector ETV
attr interpolationmode none
attr recordingmode vector
attr source packetLength(packetPulled)
attr title "outgoing packet lengths"
attr unit b
170	733791 10761 10006 102830 1.15 5.39 434 544 544 236096 128436224
170	1429357 56 102854 102930 5.39000006 5.391627215238 2 544 544 1088 591872
vector 171 Highway5G.server.ppp[0].queue outgoingDataRate:vector ETV
attr interpolationmode linear
attr recordingmode vector
attr source throughput(packetPulled)
attr title "outgoing datarate"
attr unit bps
171	744552 999 10006 100209 0.1 5.3 53 0 130560 2290240 179840307200
171	1437947 40 103240 103240 5.4 5.401 2 0 81600 81600 6658560000
vector 172 Highway5G.server.ppp[0].ppp rcvdPkFromHl:vector(packetBytes) ETV
attr interpolationmode none
attr recordingmode vector(packetBytes)
attr source packetReceivedFromUpper
attr title "packets received from higher layer, packetBytes"
172	745551 10327 10006 102830 1.15 5.39 434 68 68 29512 2006816
172	1429413 54 102854 102930 5.39000006 5.391627215238 2 68 68 136 9248
vector 173 Highway5G.server.ppp[0].ppp txPk:vector(packetBytes) ETV
attr interpolationmode none
attr recordingmode vector(packetBytes)
attr source packetSentToLower
attr title "packets transmitted, packetBytes"
173	755878 10327 10006 102830 1.15 5.39 434 75 75 32550 2441250
173	1429467 54 102854 102930 5.39000006 5.391627215238 2 75 75 150 11250
vector 174 Highway5G.router.ppp[0].ppp rxPkOk:vector(packetBytes) ETV
attr interpolationmode none
attr recordingmode vector(packetBytes)
attr source rxPkOk
attr title "packets received OK, packetBytes"
174	766205 11184 10016 102276 1.15000011 5.371627325238 433 75 75 32475 2435625
174	1429521 79 102855 102932 5.39000011 5.391627325238 3 75 75 225 16875
vector 175 Highway5G.router.ppp[0].ppp passedUpPk:vector(packetBytes) ETV
attr interpolationmode none
attr recordingmode vector(packetBytes)
attr source packetSentToUpper
attr title "packets passed to higher layer, packetBytes"
175	777389 11184 10016 102276 1.15000011 5.371627325238 433 68 68 29444 2002192
175	1429600 79 102855 102932 5.39000011 5.391627325238 3 68 68 204 13872
vector 176 Highway5G.router.ppp[1].queue incomingPacketLengths:vector ETV
attr interpolationmode none
attr recordingmode vector
attr source packetLength(packetPushStarted)
attr title "incoming packet lengths"
attr unit b
176	788573 11617 10018 102278 1.15000011 5.371627325238 433 544 544 235552 128140288
176	1429679 82 102857 102934 5.39000011 5.391627325238 3 544 544 1632 887808
vector 177 Highway5G.router.ppp[1].queue incomingDataRate:vector ETV
attr interpolationmode linear
attr recordingmode vector
attr source throughput(packetPushStarted)
attr title "incoming datarate"
attr unit bps
177	800190 999 10018 100236 0.1 5.3 53 0 130560 2290240 179840307200
177	1437987 40 103240 103240 5.4 5.401 2 0 81600 81600 6658560000
vector 178 Highway5G.router.ppp[1].queue queueingTime:vector ETV
attr interpolationmode none
attr recordingmode vector
attr source queueingTime(packetPulled)
attr title "queueing times"
attr unit s
178	801189 10751 10018 102278 1.15000011 5.371627325238 433 0 0 0 0
178	1429761 76 102857 102934 5.39000011 5.391627325238 3 0 0 0 0
vector 179 Highway5G.router.ppp[1].queue outgoingPacketLengths:vector ETV
attr interpolationmode none
attr recordingmode vector
attr source packetLength(packetPulled)
attr title "outgoing packet lengths"
attr unit b
179	811940 11617 10018 102278 1.15000011 5.371627325238 433 544 544 235552 128140288
179	1429837 82 102857 102934 5.39000011 5.391627325238 3 544 544 1632 887808
vector 180 Highway5G.router.ppp[1].queue outgoingDataRate:vector ETV
attr interpolationmode linear
attr recordingmode vector
attr source throughput(packetPulled)
attr title "outgoing datarate"
attr unit bps
180	823557 999 10018 100236 0.1 5.3 53 0 130560 2290240 179840307200
180	1438027 40 103240 103240 5.4 5.401 2 0 81600 81600 6658560000
vector 181 Highway5G.router.ppp[1].ppp rcvdPkFromHl:vector(packetBytes) ETV
attr interpolationmode none
attr recordingmode vector(packetBytes)
attr source packetReceivedFromUpper
attr title "packets received from higher layer, packetBytes"
181	824556 11184 10018 102278 1.15000011 5.371627325238 433 68 68 29444 2002192
181	1429919 79 102857 102934 5.39000011 5.391627325238 3 68 68 204 13872
vector 182 Highway5G.router.ppp[1].ppp txPk:vector(packetBytes) ETV
attr interpolationmode none
attr recordingmode vector(packetBytes)
attr source packetSentToLower
attr title "packets transmitted, packetBytes"
182	835740 11184 10018 102278 1.15000011 5.371627325238 433 75 75 32475 2435625
182	1429998 79 102857 102934 5.39000011 5.391627325238 3 75 75 225 16875
vector 183 Highway5G.upf.pppIf.ppp rxPkOk:vector(packetBytes) ETV
attr interpolationmode none
attr recordingmode vector(packetBytes)
attr source rxPkOk
attr title "packets received OK, packetBytes"
183	846924 11184 10020 102280 1.15000022 5.371627435238 433 75 75 32475 2435625
183	1430077 79 102863 102936 5.39000022 5.391627435238 3 75 75 225 16875
vector 184 Highway5G.upf.pppIf.ppp passedUpPk:vector(packetBytes) ETV
attr interpolationmode none
attr recordingmode vector(packetBytes)
attr source packetSentToUpper
attr title "packets passed to higher layer, packetBytes"
184	858108 11184 10020 102280 1.15000022 5.371627435238 433 68 68 29444 2002192
184	1430156 79 102863 102936 5.39000022 5.391627435238 3 68 68 204 13872
vector 185 Highway5G.upf.udp packetSent:vector(packetBytes) ETV
attr interpolationmode none
attr recordingmode vector(packetBytes)
attr source packetSent
attr title "packets sent, packetBytes"
185	869292 11184 10023 102283 1.15000022 5.371627435238 433 84 84 36372 3055248
185	1430235 79 102866 102939 5.39000022 5.391627435238 3 84 84 252 21168
vector 186 Highway5G.upf.ppp[1].queue incomingPacketLengths:vector ETV
attr interpolationmode none
attr recordingmode vector
attr source packetLength(packetPushStarted)
attr title "incoming packet lengths"
attr unit b
186	880476 8342 10025 102285 1.15000022 5.371627435238 306 832 832 254592 211820544
186	1430314 82 102868 102941 5.39000022 5.391627435238 3 832 832 2496 2076672
vector 187 Highway5G.upf.ppp[1].queue incomingDataRate:vector ETV
attr interpolationmode linear
attr recordingmode vector
attr source throughput(packetPushStarted)
attr title "incoming datarate"
attr unit bps
187	888818 975 10025 100247 0.1 5.3 53 0 158080 2446080 246985523200
187	1438067 41 103240 103240 5.4 5.401 2 0 124800 124800 15575040000
vector 188 Highway5G.upf.ppp[1].queue queueingTime:vector ETV
attr interpolationmode none
attr recordingmode vector
attr source queueingTime(packetPulled)
attr title "queueing times"
attr unit s
188	889793 8090 10025 102285 1.15000022 5.371627435238 306 0 2.88e-08 1.152e-06 3.31776e-14
188	1430396 85 102868 102941 5.39000022 5.391627435238 3 0 2.88e-08 2.88e-08 8.2944e-16
vector 189 Highway5G.upf.ppp[1].queue outgoingPacketLengths:vector ETV
attr interpolationmode none
attr recordingmode vector
attr source packetLength(packetPulled)
attr title "outgoing packet lengths"
attr unit b
189	897883 8422 10025 102285 1.15000022 5.371627435238 306 832 832 254592 211820544
189	1430481 84 102868 102941 5.39000022 5.391627435238 3 832 832 2496 2076672
vector 190 Highway5G.upf.ppp[1].queue outgoingDataRate:vector ETV
attr interpolationmode linear
attr recordingmode vector
attr source throughput(packetPulled)
attr title "outgoing datarate"
attr unit bps
190	906305 975 10025 100247 0.1 5.3 53 0 158080 2446080 246985523200
190	1438108 41 103240 103240 5.4 5.401 2 0 124800 124800 15575040000
vector 191 Highway5G.upf.ppp[1].ppp rcvdPkFromHl:vector(packetBytes) ETV
attr interpolationmode none
attr recordingmode vector(packetBytes)
attr source packetReceivedFromUpper
attr title "packets received from higher layer, packetBytes"
191	907280 8422 10025 102285 1.15000022 5.371627435238 306 104 104 31824 3309696
191	1430565 84 102868 102941 5.39000022 5.391627435238 3 104 104 312 32448
vector 192 Highway5G.upf.ppp[1].ppp txPk:vector(packetBytes) ETV
attr interpolationmode none
attr recordingmode vector(packetBytes)
attr source packetSentToLower
attr title "packets transmitted, packetBytes"
192	915702 8422 10025 102285 1.15000022 5.371627435238 306 111 111 33966 3770226
192	1430649 84 102868 102941 5.39000022 5.391627435238 3 111 111 333 36963
vector 193 Highway5G.gNodeB2.pppIf.ppp rxPkOk:vector(packetBytes) ETV
attr interpolationmode none
attr recordingmode vector(packetBytes)
attr source rxPkOk
attr title "packets received OK, packetBytes"
193	924124 8614 10027 102287 1.1500003588 5.371627574038 306 111 111 33966 3770226
193	1430733 86 102877 102943 5.3900003588 5.391627574038 3 111 111 333 36963
vector 194 Highway5G.gNodeB2.pppIf.ppp passedUpPk:vector(packetBytes) ETV
attr interpolationmode none
attr recordingmode vector(packetBytes)
attr source packetSentToUpper
attr title "packets passed to higher layer, packetBytes"
194	932738 8614 10027 102287 1.1500003588 5.371627574038 306 104 104 31824 3309696
194	1430819 86 102877 102943 5.3900003588 5.391627574038 3 104 104 312 32448
vector 195 Highway5G.gNodeB2.udp packetReceived:vector(packetBytes) ETV
attr interpolationmode none
attr recordingmode vector(packetBytes)
attr source packetReceived
attr title "packets received, packetBytes"
195	941352 8308 10029 102289 1.1500003588 5.371627574038 306 84 84 25704 2159136
195	1430905 83 102879 102945 5.3900003588 5.391627574038 3 84 84 252 21168
vector 196 Highway5G.gNodeB2.cellularNic.pdcpRrc receivedPacketFromUpperLayer:vector(packetBytes) ETV
attr interpolationmode none
attr recordingmode vector(packetBytes)
attr source receivedPacketFromUpperLayer
196	949660 8308 10032 102292 1.1500003588 5.371627574038 306 68 68 20808 1414944
196	1430988 83 102882 102948 5.3900003588 5.391627574038 3 68 68 204 13872
vector 197 Highway5G.gNodeB2.cellularNic.pdcpRrc sentPacketToLowerLayer:vector(packetBytes) ETV
attr interpolationmode none
attr recordingmode vector(packetBytes)
attr source sentPacketToLowerLayer
197	957968 8308 10032 102292 1.1500003588 5.371627574038 306 69 69 21114 1456866
197	1431071 83 102882 102948 5.3900003588 5.391627574038 3 69 69 207 14283
vector 198 Highway5G.gNodeB2.cellularNic.rlc.um receivedPacketFromUpperLayer:vector(packetBytes) ETV
attr interpolationmode none
attr recordingmode vector(packetBytes)
attr source receivedPacketFromUpperLayer
198	966276 8308 10033 102293 1.1500003588 5.371627574038 306 69 69 21114 1456866
198	1431154 83 102883 102949 5.3900003588 5.391627574038 3 69 69 207 14283
vector 199 Highway5G.gNodeB2.cellularNic.mac receivedPacketFromUpperLayer:vector(packetBytes) ETV
attr interpolationmode none
attr recordingmode vector(packetBytes)
attr source receivedPacketFromUpperLayer
199	974584 14117 10035 102318 1.1500003588 5.372 612 71 71 43452 3085092
199	1431237 143 102885 102973 5.3900003588 5.392 6 71 71 426 30246
vector 200 Highway5G.gNodeB2.cellularNic.mac sentPacketToUpperLayer:vector(packetBytes) ETV
attr interpolationmode none
attr recordingmode vector(packetBytes)
attr source sentPacketToUpperLayer
200	988701 5503 10039 102314 1.151 5.372 306 1 1 306 306
200	1431380 57 102914 102969 5.391 5.392 3 1 1 3 3
vector 201 Highway5G.gNodeB2.cellularNic.rlc.um rlcPacketLossDl:vector ETV
attr recordingmode vector
attr source rlcPacketLossDl
attr title "rlc Packet Loss"
attr unit ""
201	994204 5503 10041 102316 1.151 5.372 306 0 0 0 0
201	1431437 57 102917 102971 5.391 5.392 3 0 0 0 0
vector 202 Highway5G.gNodeB2.cellularNic.rlc.um sentPacketToLowerLayer:vector(packetBytes) ETV
attr interpolationmode none
attr recordingmode vector(packetBytes)
attr source sentPacketToLowerLayer
202	999707 5809 10041 102316 1.151 5.372 306 71 71 21726 1542546
202	1431494 60 102917 102971 5.391 5.392 3 71 71 213 15123
vector 203 Highway5G.gNodeB2.cellularNic.mac sentPacketToLowerLayer:vector(packetBytes) ETV
attr interpolationmode none
attr recordingmode vector(packetBytes)
attr source sentPacketToLowerLayer
203	1005516 5809 10045 102320 1.151 5.372 306 73 73 22338 1630674
203	1431554 60 102924 102975 5.391 5.392 3 73 73 219 15987
vector 204 Highway5G.car[0].cellularNic.nrPhy averageCqiDl:vector ETV
attr recordingmode vector
attr source averageCqiDl
attr title "Average Cqi reported in DL"
attr unit cqi
204	1011325 2721 10053 102351 1.152 5.373 143 14 15 2047 29333
204	1431614 20 103007 103007 5.393 5.393 1 15 15 15 225
vector 205 Highway5G.car[0].cellularNic.nrChannelModel[0] rcvdSinrDl:vector ETV
attr recordingmode vector
attr source rcvdSinrDl
attr title "SINR measured at packet reception, DL"
attr unit dB
205	1014046 4580 10053 102351 1.152 5.373 143 37.215406285247 56.308268194019 6896.5129204584 335139.17740577
205	1431634 33 103007 103007 5.393 5.393 1 56.308268194019 56.308268194019 56.308268194019 3170.6210670096
vector 206 Highway5G.car[0].cellularNic.nrMac receivedPacketFromLowerLayer:vector(packetBytes) ETV
attr interpolationmode none
attr recordingmode vector(packetBytes)
attr source receivedPacketFromLowerLayer
206	1018626 2721 10054 102352 1.152 5.373 143 73 73 10439 762047
206	1431667 20 103008 103008 5.393 5.393 1 73 73 73 5329
vector 207 Highway5G.car[0].cellularNic.nrMac sentPacketToLowerLayer:vector(packetBytes) ETV
attr interpolationmode none
attr recordingmode vector(packetBytes)
attr source sentPacketToLowerLayer
207	1021347 2578 10070 102430 1.155 5.376 143 1 1 143 143
207	1431687 19 103085 103085 5.396 5.396 1 1 1 1 1
vector 208 Highway5G.gNodeB2.cellularNic.mac macDelayDl:vector ETV
attr recordingmode vector
attr source macDelayDl
attr title "Delay at the MAC layer UL"
attr unit s
208	1023925 6744 10070 102430 1.155 5.376 306 0.004 0.004 1.224 0.004896
208	1431706 69 103036 103085 5.395 5.396 3 0.004 0.004 0.012 4.8e-05
vector 209 Highway5G.car[0].cellularNic.nrMac sentPacketToUpperLayer:vector(packetBytes) ETV
attr interpolationmode none
attr recordingmode vector(packetBytes)
attr source sentPacketToUpperLayer
209	1030669 2721 10070 102430 1.155 5.376 143 71 71 10153 720863
209	1431775 20 103085 103085 5.396 5.396 1 71 71 71 5041
vector 210 Highway5G.car[0].cellularNic.nrRlc.um receivedPacketFromLowerLayer:vector(packetBytes) ETV
attr interpolationmode none
attr recordingmode vector(packetBytes)
attr source receivedPacketFromLowerLayer
210	1033390 2721 10073 102433 1.155 5.376 143 71 71 10153 720863
210	1431795 20 103088 103088 5.396 5.396 1 71 71 71 5041
vector 211 Highway5G.car[0].cellularNic.nrRlc.um rlcPduThroughputDl:vector ETV
attr recordingmode vector
attr source rlcPduThroughputDl
attr title "Throughput at the rlc layer DL"
attr unit Bps
211	1036111 2578 10073 102433 1.155 5.376 143 0 0 0 0
211	1431815 19 103088 103088 5.396 5.396 1 0 0 0 0
vector 212 Highway5G.car[0].cellularNic.nrRlc.um rlcPduDelayDl:vector ETV
attr recordingmode vector
attr source rlcPduDelayDl
attr title "Delay at the rlc layer UL"
attr unit s
212	1038689 3150 10073 102433 1.155 5.376 143 0.004 0.004 0.572 0.002288
212	1431834 23 103088 103088 5.396 5.396 1 0.004 0.004 0.004 1.6e-05
vector 213 Highway5G.car[0].cellularNic.nrRlc.um rlcThroughputDl:vector ETV
attr recordingmode vector
attr source rlcThroughputDl
attr title "Throughput at the rlc layer DL"
attr unit Bps
213	1041839 4548 10073 102433 1.155 5.376 143 59.74025974026 1835.3794642857 190561.12310954 279379310.15114
213	1431857 33 103088 103088 5.396 5.396 1 1841.3639733136 1841.3639733136 1841.3639733136 3390621.2822172
vector 214 Highway5G.car[0].cellularNic.nrRlc.um rlcPacketLossDl:vector ETV
attr recordingmode vector
attr source rlcPacketLossDl
attr title "rlc Packet Loss"
attr unit ""
214	1046387 2578 10073 102433 1.155 5.376 143 0 0 0 0
214	1431890 19 103088 103088 5.396 5.396 1 0 0 0 0
vector 215 Highway5G.car[0].cellularNic.nrRlc.um rlcPacketLossTotal:vector ETV
attr recordingmode vector
attr source rlcPacketLossTotal
attr title "rlc Packet Loss"
attr unit ""
215	1048965 2578 10073 102433 1.155 5.376 143 0 0 0 0
215	1431909 19 103088 103088 5.396 5.396 1 0 0 0 0
vector 216 Highway5G.car[0].cellularNic.nrRlc.um rlcDelayDl:vector ETV
attr recordingmode vector
attr source rlcDelayDl
attr title "Delay at the rlc layer DL"
attr unit s
216	1051543 4401 10073 102433 1.155 5.376 143 0.004372425962 0.0049996412 0.65489207465 0.0030061356567862
216	1431928 32 103088 103088 5.396 5.396 1 0.004372425962 0.004372425962 0.004372425962 1.9118108793172e-05
vector 217 Highway5G.car[0].cellularNic.nrRlc.um sentPacketToUpperLayer:vector(packetBytes) ETV
attr interpolationmode none
attr recordingmode vector(packetBytes)
attr source sentPacketToUpperLayer
217	1055944 2721 10073 102433 1.155 5.376 143 69 69 9867 680823
217	1431960 20 103088 103088 5.396 5.396 1 69 69 69 4761
vector 218 Highway5G.car[0].cellularNic.nrRlc.um rlcPduPacketLossDl:vector ETV
attr recordingmode vector
attr source rlcPduPacketLossDl
attr title "rlc Packet Loss"
attr unit ""
218	1058665 2578 10073 102433 1.155 5.376 143 0 0 0 0
218	1431980 19 103088 103088 5.396 5.396 1 0 0 0 0
vector 219 Highway5G.car[0].cellularNic.pdcpRrc receivedPacketFromLowerLayer:vector(packetBytes) ETV
attr interpolationmode none
attr recordingmode vector(packetBytes)
attr source receivedPacketFromLowerLayer
219	1061243 2721 10074 102434 1.155 5.376 143 69 69 9867 680823
219	1431999 20 103089 103089 5.396 5.396 1 69 69 69 4761
vector 220 Highway5G.car[0].cellularNic.pdcpRrc sentPacketToUpperLayer:vector(packetBytes) ETV
attr interpolationmode none
attr recordingmode vector(packetBytes)
attr source sentPacketToUpperLayer
220	1063964 2721 10074 102434 1.155 5.376 143 68 68 9724 661232
220	1432019 20 103089 103089 5.396 5.396 1 68 68 68 4624
vector 221 Highway5G.car[0].udp packetReceived:vector(packetBytes) ETV
attr interpolationmode none
attr recordingmode vector(packetBytes)
attr source packetReceived
attr title "packets received, packetBytes"
221	1066685 2721 10077 102437 1.155 5.376 143 48 48 6864 329472
221	1432039 20 103092 103092 5.396 5.396 1 48 48 48 2304
vector 222 Highway5G.car[0].app[0] voIPReceivedThroughput:vector ETV
attr recordingmode vector
attr source voIPReceivedThroughput
attr title "Throughput received at the application level"
attr unit Bps
222	1069406 4549 10078 102438 1.155 5.376 143 34.632034632035 1063.9880952381 110470.21629539 93889287.175347
222	1432059 32 103093 103093 5.396 5.396 1 1067.457375834 1067.457375834 1067.457375834 1139465.2492224
vector 223 Highway5G.car[0].cellularNic.nrMac harqErrorRate_1st_Dl:vector ETV
attr recordingmode vector
attr source harqErrorRate_1st_Dl
attr title "Harq Error Rate Dl (1st tx)"
attr unit ""
223	1073955 2578 10092 102472 1.156 5.377 143 0 0 0 0
223	1432091 19 103128 103128 5.397 5.397 1 0 0 0 0
vector 224 Highway5G.car[0].cellularNic.nrMac harqErrorRateDl:vector ETV
attr recordingmode vector
attr source harqErrorRateDl
attr title "Harq Error Rate Dl"
attr unit ""
224	1076533 2578 10092 102472 1.156 5.377 143 0 0 0 0
224	1432110 19 103128 103128 5.397 5.397 1 0 0 0 0
vector 225 Highway5G.car[0].cellularNic.nrMac harqTxAttemptsDl:vector ETV
attr recordingmode vector
attr source harqTxAttemptsDl
attr title "Harq Tx Attempts Dl"
attr unit ""
225	1079111 2578 10092 102472 1.156 5.377 143 1 1 143 143
225	1432129 19 103128 103128 5.397 5.397 1 1 1 1 1
vector 226 Highway5G.car[0].app[0] voIPFrameDelay:vector ETV
attr recordingmode vector
attr source voIPFrameDelay
attr title "VoIP Frame Delay"
attr unit s
226	1081689 2132 18609 59007 1.858 4.016 74 0.004700379187 0.005 0.353221234472 0.0016872396120886
226	1438149 2240 103240 103240 5.401 5.401 70 0.004372784762 0.004372784762 0.30609493334 0.0013384872602346
vector 227 Highway5G.car[1].udp passedUpPk:vector(count) ETV
attr interpolationmode none
attr recordingmode vector(count)
attr source packetSentToUpper
attr title "packets passed up, count"
227	1083821 1166 21796 94105 2.1 5.131 62 0 61 1891 77531
vector 228 Highway5G.car[1].udp droppedPkWrongPort:vector(count) ETV
attr interpolationmode none
attr recordingmode vector(count)
attr source packetDropReasonIsNoPortFound(packetDropped)
attr title "packets dropped (wrong port), count"
228	1084987 16 21796 21796 2.1 2.1 1 0 0 0 0
vector 229 Highway5G.car[1].udp droppedPkBadChecksum:vector(count) ETV
attr interpolationmode none
attr recordingmode vector(count)
attr source packetDropReasonIsIncorrectlyReceived(packetDropped)
attr title "packets dropped (checksum error), count"
229	1085003 16 21796 21796 2.1 2.1 1 0 0 0 0
vector 230 Highway5G.car[1].cellularNic.phy servingCell:vector ETV
attr recordingmode vector
attr source servingCell
attr title "ID of the serving eNodeB for the UE"
attr unit ""
230	1085019 16 21796 21796 2.1 2.1 1 0 0 0 0
vector 231 Highway5G.car[1].cellularNic.nrChannelModel[0] distance:vector ETV
attr recordingmode vector
attr source distance
attr title "distance between UE and serving base station"
attr unit meters
231	1085035 2180 21796 93976 2.1 5.128 69 316.21932566701 697.51137870611 23394.160141162 8458922.7966615
vector 232 Highway5G.car[1].cellularNic.nrPhy servingCell:vector ETV
attr recordingmode vector
attr source servingCell
attr title "ID of the serving eNodeB for the UE"
attr unit ""
232	1087215 16 21796 21796 2.1 2.1 1 2 2 2 4
vector 233 Highway5G.car[1].cellularNic.nrChannelModel[0] measuredSinrUl:vector ETV
attr recordingmode vector
attr source measuredSinrUl
attr title "SINR measured at feedback computation, UL"
attr unit dB
233	1087231 17460 21868 102850 2.102 5.39 549 11.219228223427 25.489705118156 11605.24723195 257175.90707414
233	1432148 33 103098 103098 5.396 5.396 1 21.923385140289 21.923385140289 21.923385140289 480.63481600944
vector 234 Highway5G.car[1].cellularNic.nrChannelModel[0] measuredSinrDl:vector ETV
attr recordingmode vector
attr source measuredSinrDl
attr title "SINR measured at feedback computation, DL"
attr unit dB
234	1104691 17411 21868 102850 2.102 5.39 549 34.40064105329 51.71131114306 23579.254926054 1030501.7765733
234	1432181 32 103098 103098 5.396 5.396 1 51.71131114306 51.71131114306 51.71131114306 2674.0597001344
vector 235 Highway5G.server.app[1] voIPGeneratedThroughput:vector ETV
attr recordingmode vector
attr source voIPGeneratedThroughput
attr title "Throughput generated by the application"
attr unit Bps
235	1122102 2336 22608 93899 2.15 5.126613011839 61 18.604651162791 475.94776402378 17630.222071167 5946988.562316
vector 236 Highway5G.car[1].cellularNic.nrPhy averageCqiDl:vector ETV
attr recordingmode vector
attr source averageCqiDl
attr title "Average Cqi reported in DL"
attr unit cqi
236	1124438 1159 22667 93976 2.152 5.128 61 14 15 883 12797
vector 237 Highway5G.car[1].cellularNic.nrChannelModel[0] rcvdSinrDl:vector ETV
attr recordingmode vector
attr source rcvdSinrDl
attr title "SINR measured at packet reception, DL"
attr unit dB
237	1125597 1940 22667 93976 2.152 5.128 61 26.471140330817 54.663858867608 2935.7071634656 143864.82540779
vector 238 Highway5G.car[1].cellularNic.nrMac receivedPacketFromLowerLayer:vector(packetBytes) ETV
attr interpolationmode none
attr recordingmode vector(packetBytes)
attr source receivedPacketFromLowerLayer
238	1127537 1159 22668 93977 2.152 5.128 61 73 73 4453 325069
vector 239 Highway5G.car[1].cellularNic.nrMac sentPacketToLowerLayer:vector(packetBytes) ETV
attr interpolationmode none
attr recordingmode vector(packetBytes)
attr source sentPacketToLowerLayer
239	1128696 1098 22718 94098 2.155 5.131 61 1 1 61 61
vector 240 Highway5G.car[1].cellularNic.nrMac sentPacketToUpperLayer:vector(packetBytes) ETV
attr interpolationmode none
attr recordingmode vector(packetBytes)
attr source sentPacketToUpperLayer
240	1129794 1159 22718 94098 2.155 5.131 61 71 71 4331 307501
vector 241 Highway5G.car[1].cellularNic.nrRlc.um receivedPacketFromLowerLayer:vector(packetBytes) ETV
attr interpolationmode none
attr recordingmode vector(packetBytes)
attr source receivedPacketFromLowerLayer
241	1130953 1159 22721 94101 2.155 5.131 61 71 71 4331 307501
vector 242 Highway5G.car[1].cellularNic.nrRlc.um rlcPduThroughputDl:vector ETV
attr recordingmode vector
attr source rlcPduThroughputDl
attr title "Throughput at the rlc layer DL"
attr unit Bps
242	1132112 1098 22721 94101 2.155 5.131 61 0 0 0 0
vector 243 Highway5G.car[1].cellularNic.nrRlc.um rlcPduDelayDl:vector ETV
attr recordingmode vector
attr source rlcPduDelayDl
attr title "Delay at the rlc layer UL"
attr unit s
243	1133210 1342 22721 94101 2.155 5.131 61 0.004 0.004 0.244 0.000976
vector 244 Highway5G.car[1].cellularNic.nrRlc.um rlcThroughputDl:vector ETV
attr recordingmode vector
attr source rlcThroughputDl
attr title "Throughput at the rlc layer DL"
attr unit Bps
244	1134552 1936 22721 94101 2.155 5.131 61 32.018561484919 820.30793217696 30378.551213838 17660026.925473
vector 245 Highway5G.car[1].cellularNic.nrRlc.um rlcPacketLossDl:vector ETV
attr recordingmode vector
attr source rlcPacketLossDl
attr title "rlc Packet Loss"
attr unit ""
245	1136488 1098 22721 94101 2.155 5.131 61 0 0 0 0
vector 246 Highway5G.car[1].cellularNic.nrRlc.um rlcPacketLossTotal:vector ETV
attr recordingmode vector
attr source rlcPacketLossTotal
attr title "rlc Packet Loss"
attr unit ""
246	1137586 1098 22721 94101 2.155 5.131 61 0 0 0 0
vector 247 Highway5G.car[1].cellularNic.nrRlc.um rlcDelayDl:vector ETV
attr recordingmode vector
attr source rlcDelayDl
attr title "Delay at the rlc layer DL"
attr unit s
247	1138684 1859 22721 94101 2.155 5.131 61 0.004169167059 0.0049996412 0.273521936416 0.0012327076720934
vector 248 Highway5G.car[1].cellularNic.nrRlc.um sentPacketToUpperLayer:vector(packetBytes) ETV
attr interpolationmode none
attr recordingmode vector(packetBytes)
attr source sentPacketToUpperLayer
248	1140543 1159 22721 94101 2.155 5.131 61 69 69 4209 290421
vector 249 Highway5G.car[1].cellularNic.nrRlc.um rlcPduPacketLossDl:vector ETV
attr recordingmode vector
attr source rlcPduPacketLossDl
attr title "rlc Packet Loss"
attr unit ""
249	1141702 1098 22721 94101 2.155 5.131 61 0 0 0 0
vector 250 Highway5G.car[1].cellularNic.pdcpRrc receivedPacketFromLowerLayer:vector(packetBytes) ETV
attr interpolationmode none
attr recordingmode vector(packetBytes)
attr source receivedPacketFromLowerLayer
250	1142800 1159 22722 94102 2.155 5.131 61 69 69 4209 290421
vector 251 Highway5G.car[1].cellularNic.pdcpRrc sentPacketToUpperLayer:vector(packetBytes) ETV
attr interpolationmode none
attr recordingmode vector(packetBytes)
attr source sentPacketToUpperLayer
251	1143959 1159 22722 94102 2.155 5.131 61 68 68 4148 282064
vector 252 Highway5G.car[1].udp packetReceived:vector(packetBytes) ETV
attr interpolationmode none
attr recordingmode vector(packetBytes)
attr source packetReceived
attr title "packets received, packetBytes"
252	1145118 1159 22725 94105 2.155 5.131 61 48 48 2928 140544
vector 253 Highway5G.car[1].app[0] voIPReceivedThroughput:vector ETV
attr recordingmode vector
attr source voIPReceivedThroughput
attr title "Throughput received at the application level"
attr unit Bps
253	1146277 1945 22726 94106 2.155 5.131 61 18.561484918794 475.54083024752 17610.754326863 5934896.6773275
vector 254 Highway5G.car[1].cellularNic.nrMac harqErrorRate_1st_Dl:vector ETV
attr recordingmode vector
attr source harqErrorRate_1st_Dl
attr title "Harq Error Rate Dl (1st tx)"
attr unit ""
254	1148222 1098 22747 94204 2.156 5.132 61 0 0 0 0
vector 255 Highway5G.car[1].cellularNic.nrMac harqErrorRateDl:vector ETV
attr recordingmode vector
attr source harqErrorRateDl
attr title "Harq Error Rate Dl"
attr unit ""
255	1149320 1098 22747 94204 2.156 5.132 61 0 0 0 0
vector 256 Highway5G.car[1].cellularNic.nrMac harqTxAttemptsDl:vector ETV
attr recordingmode vector
attr source harqTxAttemptsDl
attr title "Harq Tx Attempts Dl"
attr unit ""
256	1150418 1098 22747 94204 2.156 5.132 61 1 1 61 61
vector 257 Highway5G.car[2].udp passedUpPk:vector(count) ETV
attr interpolationmode none
attr recordingmode vector(count)
attr source packetSentToUpper
attr title "packets passed up, count"
257	1151516 1755 37936 98488 3.1 5.256 93 0 92 4278 263810
vector 258 Highway5G.car[2].udp droppedPkWrongPort:vector(count) ETV
attr interpolationmode none
attr recordingmode vector(count)
attr source packetDropReasonIsNoPortFound(packetDropped)
attr title "packets dropped (wrong port), count"
258	1153271 16 37936 37936 3.1 3.1 1 0 0 0 0
vector 259 Highway5G.car[2].udp droppedPkBadChecksum:vector(count) ETV
attr interpolationmode none
attr recordingmode vector(count)
attr source packetDropReasonIsIncorrectlyReceived(packetDropped)
attr title "packets dropped (checksum error), count"
259	1153287 16 37936 37936 3.1 3.1 1 0 0 0 0
vector 260 Highway5G.car[2].cellularNic.phy servingCell:vector ETV
attr recordingmode vector
attr source servingCell
attr title "ID of the serving eNodeB for the UE"
attr unit ""
260	1153303 16 37936 37936 3.1 3.1 1 0 0 0 0
vector 261 Highway5G.car[2].cellularNic.nrChannelModel[0] distance:vector ETV
attr recordingmode vector
attr source distance
attr title "distance between UE and serving base station"
attr unit meters
261	1153319 3079 37936 98405 3.1 5.253 98 41.332188291935 494.52704678309 5740.3977710867 916546.38399828
vector 262 Highway5G.car[2].cellularNic.nrPhy servingCell:vector ETV
attr recordingmode vector
attr source servingCell
attr title "ID of the serving eNodeB for the UE"
attr unit ""
262	1156398 16 37936 37936 3.1 3.1 1 1 1 1 1
vector 263 Highway5G.car[3].udp passedUpPk:vector(count) ETV
attr interpolationmode none
attr recordingmode vector(count)
attr source packetSentToUpper
attr title "packets passed up, count"
263	1156414 672 37936 54788 3.1 3.835 36 0 35 630 14910
vector 264 Highway5G.car[3].udp droppedPkWrongPort:vector(count) ETV
attr interpolationmode none
attr recordingmode vector(count)
attr source packetDropReasonIsNoPortFound(packetDropped)
attr title "packets dropped (wrong port), count"
264	1157086 16 37936 37936 3.1 3.1 1 0 0 0 0
vector 265 Highway5G.car[3].udp droppedPkBadChecksum:vector(count) ETV
attr interpolationmode none
attr recordingmode vector(count)
attr source packetDropReasonIsIncorrectlyReceived(packetDropped)
attr title "packets dropped (checksum error), count"
265	1157102 16 37936 37936 3.1 3.1 1 0 0 0 0
vector 266 Highway5G.car[3].cellularNic.phy servingCell:vector ETV
attr recordingmode vector
attr source servingCell
attr title "ID of the serving eNodeB for the UE"
attr unit ""
266	1157118 16 37936 37936 3.1 3.1 1 0 0 0 0
vector 267 Highway5G.car[3].cellularNic.nrChannelModel[0] distance:vector ETV
attr recordingmode vector
attr source distance
attr title "distance between UE and serving base station"
attr unit meters
267	1157134 1290 37936 89823 3.1 5 41 19.061096927972 518.02140107009 2645.2494035635 824519.03227949
vector 268 Highway5G.car[3].cellularNic.nrPhy servingCell:vector ETV
attr recordingmode vector
attr source servingCell
attr title "ID of the serving eNodeB for the UE"
attr unit ""
268	1158424 16 37936 37936 3.1 3.1 1 1 1 1 1
vector 269 Highway5G.car[2].cellularNic.nrChannelModel[0] measuredSinrUl:vector ETV
attr recordingmode vector
attr source measuredSinrUl
attr title "SINR measured at feedback computation, UL"
attr unit dB
269	1158440 12154 38023 102759 3.102 5.388 382 48.509112177045 76.227512911245 23398.918832109 1492338.4886508
269	1432213 64 103029 103234 5.394 5.4 2 50.022107647121 50.022107647121 100.04421529424 5004.4225069203
vector 270 Highway5G.car[2].cellularNic.nrChannelModel[0] measuredSinrDl:vector ETV
attr recordingmode vector
attr source measuredSinrDl
attr title "SINR measured at feedback computation, DL"
attr unit dB
270	1170594 12109 38023 102759 3.102 5.388 382 67.740997317377 72.98539432845 26492.893125638 1838479.7509847
270	1432277 62 103029 103234 5.394 5.4 2 72.98539432845 72.98539432845 145.9707886569 10653.735570559
vector 271 Highway5G.gNodeB1.cellularNic.mac receivedPacketFromLowerLayer:vector(packetBytes) ETV
attr interpolationmode none
attr recordingmode vector(packetBytes)
attr source receivedPacketFromLowerLayer
271	1182703 15902 38024 102762 3.102 5.388 891 1 1 891 891
271	1432339 72 103030 103237 5.394 5.4 4 1 1 4 4
vector 272 Highway5G.car[3].cellularNic.nrChannelModel[0] measuredSinrUl:vector ETV
attr recordingmode vector
attr source measuredSinrUl
attr title "SINR measured at feedback computation, UL"
attr unit dB
272	1198605 12008 38025 102761 3.102 5.388 382 60.105537689854 83.202485026287 25568.650019236 1726598.9488756
272	1432411 64 103031 103236 5.394 5.4 2 83.202485026287 83.202485026287 166.40497005257 13845.307029099
vector 273 Highway5G.car[3].cellularNic.nrChannelModel[0] measuredSinrDl:vector ETV
attr recordingmode vector
attr source measuredSinrDl
attr title "SINR measured at feedback computation, DL"
attr unit dB
273	1210613 12156 38025 102761 3.102 5.388 382 84.198424978769 105.73472779509 34492.834969474 3130211.7429152
273	1432475 64 103031 103236 5.394 5.4 2 105.73472779509 105.73472779509 211.46945559018 22359.665323804
vector 274 Highway5G.server.app[2] voIPGeneratedThroughput:vector ETV
attr recordingmode vector
attr source voIPGeneratedThroughput
attr title "Throughput generated by the application"
attr unit Bps
274	1222769 3096 38922 98295 3.15 5.251506071042 92 12.698412698413 700.75135593813 38695.026440834 19878877.915898
vector 275 Highway5G.server.app[3] voIPGeneratedThroughput:vector ETV
attr recordingmode vector
attr source voIPGeneratedThroughput
attr title "Throughput generated by the application"
attr unit Bps
275	1225865 1083 38923 54574 3.15 3.83 35 12.698412698413 365.53524804178 7009.0609445606 1786448.7132774
vector 276 Highway5G.upf.ppp[0].queue incomingPacketLengths:vector ETV
attr interpolationmode none
attr recordingmode vector
attr source packetLength(packetPushStarted)
attr title "incoming packet lengths"
attr unit b
276	1226948 3275 38960 98309 3.15000022 5.251506291042 127 832 832 105664 87912448
vector 277 Highway5G.upf.ppp[0].queue incomingDataRate:vector ETV
attr interpolationmode linear
attr recordingmode vector
attr source throughput(packetPushStarted)
attr title "incoming datarate"
attr unit bps
277	1230223 898 38960 96915 0.1 5.2 52 0 83200 1031680 64376832000
277	1440389 57 103240 103240 5.3 5.401 3 0 24960 24960 623001600
vector 278 Highway5G.upf.ppp[0].queue queueingTime:vector ETV
attr interpolationmode none
attr recordingmode vector
attr source queueingTime(packetPulled)
attr title "queueing times"
attr unit s
278	1231121 3336 38960 98309 3.15000022 5.251506291042 127 0 2.88e-08 1.008e-06 2.90304e-14
vector 279 Highway5G.upf.ppp[0].queue outgoingPacketLengths:vector ETV
attr interpolationmode none
attr recordingmode vector
attr source packetLength(packetPulled)
attr title "outgoing packet lengths"
attr unit b
279	1234457 3345 38960 98309 3.15000022 5.251506291042 127 832 832 105664 87912448
vector 280 Highway5G.upf.ppp[0].queue outgoingDataRate:vector ETV
attr interpolationmode linear
attr recordingmode vector
attr source throughput(packetPulled)
attr title "outgoing datarate"
attr unit bps
280	1237802 898 38960 96915 0.1 5.2 52 0 83200 1031680 64376832000
280	1440446 57 103240 103240 5.3 5.401 3 0 24960 24960 623001600
vector 281 Highway5G.upf.ppp[0].ppp rcvdPkFromHl:vector(packetBytes) ETV
attr interpolationmode none
attr recordingmode vector(packetBytes)
attr source packetReceivedFromUpper
attr title "packets received from higher layer, packetBytes"
281	1238700 3345 38960 98309 3.15000022 5.251506291042 127 104 104 13208 1373632
vector 282 Highway5G.upf.ppp[0].ppp txPk:vector(packetBytes) ETV
attr interpolationmode none
attr recordingmode vector(packetBytes)
attr source packetSentToLower
attr title "packets transmitted, packetBytes"
282	1242045 3345 38960 98309 3.15000022 5.251506291042 127 111 111 14097 1564767
vector 283 Highway5G.gNodeB1.pppIf.ppp rxPkOk:vector(packetBytes) ETV
attr interpolationmode none
attr recordingmode vector(packetBytes)
attr source rxPkOk
[...]
attr recordingmode vector
attr source rlcThroughputDl
attr title "Throughput at the rlc layer DL"
attr unit Bps
382	1397215 1983 62807 102397 4.155 5.375 62 16.606498194946 795.90697674419 27222.58484501 15167414.379455
382	1433030 33 103051 103051 5.395 5.395 1 805.74606116775 805.74606116775 805.74606116775 649226.71508734
vector 383 Highway5G.car[5].cellularNic.nrRlc.um rlcPacketLossDl:vector ETV
attr recordingmode vector
attr source rlcPacketLossDl
attr title "rlc Packet Loss"
attr unit ""
383	1399198 1120 62807 102397 4.155 5.375 62 0 0 0 0
383	1433063 19 103051 103051 5.395 5.395 1 0 0 0 0
vector 384 Highway5G.car[5].cellularNic.nrRlc.um rlcPacketLossTotal:vector ETV
attr recordingmode vector
attr source rlcPacketLossTotal
attr title "rlc Packet Loss"
attr unit ""
384	1400318 1120 62807 102397 4.155 5.375 62 0 0 0 0
384	1433082 19 103051 103051 5.395 5.395 1 0 0 0 0
vector 385 Highway5G.car[5].cellularNic.nrRlc.um rlcDelayDl:vector ETV
attr recordingmode vector
attr source rlcDelayDl
attr title "Delay at the rlc layer DL"
attr unit s
385	1401438 1802 62807 102397 4.155 5.375 62 0.0049994924 0.0049996412 0.309974248 0.0015497424909611
385	1433101 30 103051 103051 5.395 5.395 1 0.0049996412 0.0049996412 0.0049996412 2.4996412128737e-05
vector 386 Highway5G.car[5].cellularNic.nrRlc.um sentPacketToUpperLayer:vector(packetBytes) ETV
attr interpolationmode none
attr recordingmode vector(packetBytes)
attr source sentPacketToUpperLayer
386	1403240 1182 62807 102397 4.155 5.375 62 69 69 4278 295182
386	1433131 20 103051 103051 5.395 5.395 1 69 69 69 4761
vector 387 Highway5G.car[5].cellularNic.nrRlc.um rlcPduPacketLossDl:vector ETV
attr recordingmode vector
attr source rlcPduPacketLossDl
attr title "rlc Packet Loss"
attr unit ""
387	1404422 1120 62807 102397 4.155 5.375 62 0 0 0 0
387	1433151 19 103051 103051 5.395 5.395 1 0 0 0 0
vector 388 Highway5G.car[5].cellularNic.pdcpRrc receivedPacketFromLowerLayer:vector(packetBytes) ETV
attr interpolationmode none
attr recordingmode vector(packetBytes)
attr source receivedPacketFromLowerLayer
388	1405542 1182 62808 102398 4.155 5.375 62 69 69 4278 295182
388	1433170 20 103052 103052 5.395 5.395 1 69 69 69 4761
vector 389 Highway5G.car[5].cellularNic.pdcpRrc sentPacketToUpperLayer:vector(packetBytes) ETV
attr interpolationmode none
attr recordingmode vector(packetBytes)
attr source sentPacketToUpperLayer
389	1406724 1182 62808 102398 4.155 5.375 62 68 68 4216 286688
389	1433190 20 103052 103052 5.395 5.395 1 68 68 68 4624
vector 390 Highway5G.car[5].udp packetReceived:vector(packetBytes) ETV
attr interpolationmode none
attr recordingmode vector(packetBytes)
attr source packetReceived
attr title "packets received, packetBytes"
390	1407906 1182 62811 102401 4.155 5.375 62 48 48 2976 142848
390	1433210 20 103055 103055 5.395 5.395 1 48 48 48 2304
vector 391 Highway5G.car[5].app[0] voIPReceivedThroughput:vector ETV
attr recordingmode vector
attr source voIPReceivedThroughput
attr title "Throughput received at the application level"
attr unit Bps
391	1409088 1982 62812 102402 4.155 5.375 62 9.6269554753309 461.39534883721 15781.208605803 5097219.7032405
391	1433230 33 103056 103056 5.395 5.395 1 467.09916589435 467.09916589435 467.09916589435 218181.6307792
vector 392 Highway5G.car[4].cellularNic.nrMac harqErrorRate_1st_Dl:vector ETV
attr recordingmode vector
attr source harqErrorRate_1st_Dl
attr title "Harq Error Rate Dl (1st tx)"
attr unit ""
392	1411070 504 62866 80109 4.156 4.696 28 0 0 0 0
vector 393 Highway5G.car[4].cellularNic.nrMac harqErrorRateDl:vector ETV
attr recordingmode vector
attr source harqErrorRateDl
attr title "Harq Error Rate Dl"
attr unit ""
393	1411574 504 62866 80109 4.156 4.696 28 0 0 0 0
vector 394 Highway5G.car[4].cellularNic.nrMac harqTxAttemptsDl:vector ETV
attr recordingmode vector
attr source harqTxAttemptsDl
attr title "Harq Tx Attempts Dl"
attr unit ""
394	1412078 504 62866 80109 4.156 4.696 28 1 1 28 28
vector 395 Highway5G.car[5].cellularNic.nrMac harqErrorRate_1st_Dl:vector ETV
attr recordingmode vector
attr source harqErrorRate_1st_Dl
attr title "Harq Error Rate Dl (1st tx)"
attr unit ""
395	1412582 1120 62868 102450 4.156 5.376 62 0 0 0 0
395	1433263 19 103105 103105 5.396 5.396 1 0 0 0 0
vector 396 Highway5G.car[5].cellularNic.nrMac harqErrorRateDl:vector ETV
attr recordingmode vector
attr source harqErrorRateDl
attr title "Harq Error Rate Dl"
attr unit ""
396	1413702 1120 62868 102450 4.156 5.376 62 0 0 0 0
396	1433282 19 103105 103105 5.396 5.396 1 0 0 0 0
vector 397 Highway5G.car[5].cellularNic.nrMac harqTxAttemptsDl:vector ETV
attr recordingmode vector
attr source harqTxAttemptsDl
attr title "Harq Tx Attempts Dl"
attr unit ""
397	1414822 1120 62868 102450 4.156 5.376 62 1 1 62 62
397	1433301 19 103105 103105 5.396 5.396 1 1 1 1 1
vector 398 Highway5G.car[2].app[0] voIPFrameDelay:vector ETV
attr recordingmode vector
attr source voIPFrameDelay
attr title "VoIP Frame Delay"
attr unit s
398	1415942 1474 82545 82545 4.776 4.776 67 0.005 0.005 0.335 0.001675
398	1441239 800 103240 103240 5.401 5.401 25 0.004493928958 0.004493928958 0.11234822395 0.00050488493698877
vector 399 Highway5G.car[6].udp passedUpPk:vector(count) ETV
attr interpolationmode none
attr recordingmode vector(count)
attr source packetSentToUpper
attr title "packets passed up, count"
399	1417416 239 93002 102389 5.1 5.375 13 0 12 78 650
399	1433320 20 103043 103043 5.395 5.395 1 13 13 13 169
vector 400 Highway5G.car[6].udp droppedPkWrongPort:vector(count) ETV
attr interpolationmode none
attr recordingmode vector(count)
attr source packetDropReasonIsNoPortFound(packetDropped)
attr title "packets dropped (wrong port), count"
400	1417655 16 93002 93002 5.1 5.1 1 0 0 0 0
vector 401 Highway5G.car[6].udp droppedPkBadChecksum:vector(count) ETV
attr interpolationmode none
attr recordingmode vector(count)
attr source packetDropReasonIsIncorrectlyReceived(packetDropped)
attr title "packets dropped (checksum error), count"
401	1417671 16 93002 93002 5.1 5.1 1 0 0 0 0
vector 402 Highway5G.car[6].cellularNic.phy servingCell:vector ETV
attr recordingmode vector
attr source servingCell
attr title "ID of the serving eNodeB for the UE"
attr unit ""
402	1417687 16 93002 93002 5.1 5.1 1 0 0 0 0
vector 403 Highway5G.car[6].cellularNic.nrChannelModel[0] distance:vector ETV
attr recordingmode vector
attr source distance
attr title "distance between UE and serving base station"
attr unit meters
403	1417703 448 93002 102328 5.1 5.372 14 230.16978751278 372.04875727383 3366.736636041 828279.45754211
403	1433340 33 102985 102985 5.392 5.392 1 230.16978751278 230.16978751278 230.16978751278 52978.131083678
vector 404 Highway5G.car[6].cellularNic.nrPhy servingCell:vector ETV
attr recordingmode vector
attr source servingCell
attr title "ID of the serving eNodeB for the UE"
attr unit ""
404	1418151 16 93002 93002 5.1 5.1 1 2 2 2 4
vector 405 Highway5G.car[6].cellularNic.nrChannelModel[0] measuredSinrUl:vector ETV
attr recordingmode vector
attr source measuredSinrUl
attr title "SINR measured at feedback computation, UL"
attr unit dB
405	1418167 1571 93109 102852 5.102 5.39 49 19.916213389865 22.67509024136 1022.4374659629 21338.465602296
405	1433373 33 103100 103100 5.396 5.396 1 20.864308827795 20.864308827795 20.864308827795 435.3193828616
vector 406 Highway5G.car[6].cellularNic.nrChannelModel[0] measuredSinrDl:vector ETV
attr recordingmode vector
attr source measuredSinrDl
attr title "SINR measured at feedback computation, DL"
attr unit dB
406	1419738 1572 93109 102852 5.102 5.39 49 59.922153222954 60.783282998438 2938.4623394541 176216.22938889
406	1433406 33 103100 103100 5.396 5.396 1 59.967821021467 59.967821021467 59.967821021467 3596.1395580627
vector 407 Highway5G.server.app[6] voIPGeneratedThroughput:vector ETV
attr recordingmode vector
attr source voIPGeneratedThroughput
attr title "Throughput generated by the application"
attr unit Bps
407	1421310 408 94706 102784 5.15 5.39 13 7.7669902912621 96.474953617811 685.5969984219 46101.268286729
vector 408 Highway5G.car[6].cellularNic.nrPhy averageCqiDl:vector ETV
attr recordingmode vector
attr source averageCqiDl
attr title "Average Cqi reported in DL"
attr unit cqi
408	1421718 232 94896 102328 5.152 5.372 12 15 15 180 2700
408	1433439 20 102985 102985 5.392 5.392 1 15 15 15 225
vector 409 Highway5G.car[6].cellularNic.nrChannelModel[0] rcvdSinrDl:vector ETV
attr recordingmode vector
attr source rcvdSinrDl
attr title "SINR measured at packet reception, DL"
attr unit dB
409	1421950 388 94896 102328 5.152 5.372 12 61.082342270193 63.846058591739 744.01924435704 46134.723364512
409	1433459 33 102985 102985 5.392 5.392 1 61.922784689065 61.922784689065 61.922784689065 3834.4312636483
vector 410 Highway5G.car[6].cellularNic.nrMac receivedPacketFromLowerLayer:vector(packetBytes) ETV
attr interpolationmode none
attr recordingmode vector(packetBytes)
attr source receivedPacketFromLowerLayer
410	1422338 232 94897 102329 5.152 5.372 12 73 73 876 63948
410	1433492 20 102986 102986 5.392 5.392 1 73 73 73 5329
vector 411 Highway5G.car[6].cellularNic.nrMac sentPacketToLowerLayer:vector(packetBytes) ETV
attr interpolationmode none
attr recordingmode vector(packetBytes)
attr source sentPacketToLowerLayer
411	1422570 220 94949 102382 5.155 5.375 12 1 1 12 12
411	1433512 19 103036 103036 5.395 5.395 1 1 1 1 1
vector 412 Highway5G.car[6].cellularNic.nrMac sentPacketToUpperLayer:vector(packetBytes) ETV
attr interpolationmode none
attr recordingmode vector(packetBytes)
attr source sentPacketToUpperLayer
412	1422790 232 94949 102382 5.155 5.375 12 71 71 852 60492
412	1433531 20 103036 103036 5.395 5.395 1 71 71 71 5041
vector 413 Highway5G.car[6].cellularNic.nrRlc.um receivedPacketFromLowerLayer:vector(packetBytes) ETV
attr interpolationmode none
attr recordingmode vector(packetBytes)
attr source receivedPacketFromLowerLayer
413	1423022 232 94952 102385 5.155 5.375 12 71 71 852 60492
413	1433551 20 103039 103039 5.395 5.395 1 71 71 71 5041
vector 414 Highway5G.car[6].cellularNic.nrRlc.um rlcPduThroughputDl:vector ETV
attr recordingmode vector
attr source rlcPduThroughputDl
attr title "Throughput at the rlc layer DL"
attr unit Bps
414	1423254 220 94952 102385 5.155 5.375 12 0 0 0 0
414	1433571 19 103039 103039 5.395 5.395 1 0 0 0 0
vector 415 Highway5G.car[6].cellularNic.nrRlc.um rlcPduDelayDl:vector ETV
attr recordingmode vector
attr source rlcPduDelayDl
attr title "Delay at the rlc layer UL"
attr unit s
415	1423474 268 94952 102385 5.155 5.375 12 0.004 0.004 0.048 0.000192
415	1433590 23 103039 103039 5.395 5.395 1 0.004 0.004 0.004 1.6e-05
vector 416 Highway5G.car[6].cellularNic.nrRlc.um rlcThroughputDl:vector ETV
attr recordingmode vector
attr source rlcThroughputDl
attr title "Throughput at the rlc layer DL"
attr unit Bps
416	1423742 387 94952 102385 5.155 5.375 12 13.385063045587 154.04651162791 1015.2768801096 109279.03680673
416	1433613 33 103039 103039 5.395 5.395 1 166.26506024096 166.26506024096 166.26506024096 27644.07025693
vector 417 Highway5G.car[6].cellularNic.nrRlc.um rlcPacketLossDl:vector ETV
attr recordingmode vector
attr source rlcPacketLossDl
attr title "rlc Packet Loss"
attr unit ""
417	1424129 220 94952 102385 5.155 5.375 12 0 0 0 0
417	1433646 19 103039 103039 5.395 5.395 1 0 0 0 0
vector 418 Highway5G.car[6].cellularNic.nrRlc.um rlcPacketLossTotal:vector ETV
attr recordingmode vector
attr source rlcPacketLossTotal
attr title "rlc Packet Loss"
attr unit ""
418	1424349 220 94952 102385 5.155 5.375 12 0 0 0 0
418	1433665 19 103039 103039 5.395 5.395 1 0 0 0 0
vector 419 Highway5G.car[6].cellularNic.nrRlc.um rlcDelayDl:vector ETV
attr recordingmode vector
attr source rlcDelayDl
attr title "Delay at the rlc layer DL"
attr unit s
419	1424569 352 94952 102385 5.155 5.375 12 0.0049995524 0.0049995524 0.0599946288 0.00029994629040415
419	1433684 30 103039 103039 5.395 5.395 1 0.0049995524 0.0049995524 0.0049995524 2.4995524200346e-05
vector 420 Highway5G.car[6].cellularNic.nrRlc.um sentPacketToUpperLayer:vector(packetBytes) ETV
attr interpolationmode none
attr recordingmode vector(packetBytes)
attr source sentPacketToUpperLayer
420	1424921 232 94952 102385 5.155 5.375 12 69 69 828 57132
420	1433714 20 103039 103039 5.395 5.395 1 69 69 69 4761
vector 421 Highway5G.car[6].cellularNic.nrRlc.um rlcPduPacketLossDl:vector ETV
attr recordingmode vector
attr source rlcPduPacketLossDl
attr title "rlc Packet Loss"
attr unit ""
421	1425153 220 94952 102385 5.155 5.375 12 0 0 0 0
421	1433734 19 103039 103039 5.395 5.395 1 0 0 0 0
vector 422 Highway5G.car[6].cellularNic.pdcpRrc receivedPacketFromLowerLayer:vector(packetBytes) ETV
attr interpolationmode none
attr recordingmode vector(packetBytes)
attr source receivedPacketFromLowerLayer
422	1425373 232 94953 102386 5.155 5.375 12 69 69 828 57132
422	1433753 20 103040 103040 5.395 5.395 1 69 69 69 4761
vector 423 Highway5G.car[6].cellularNic.pdcpRrc sentPacketToUpperLayer:vector(packetBytes) ETV
attr interpolationmode none
attr recordingmode vector(packetBytes)
attr source sentPacketToUpperLayer
423	1425605 232 94953 102386 5.155 5.375 12 68 68 816 55488
423	1433773 20 103040 103040 5.395 5.395 1 68 68 68 4624
vector 424 Highway5G.car[6].udp packetReceived:vector(packetBytes) ETV
attr interpolationmode none
attr recordingmode vector(packetBytes)
attr source packetReceived
attr title "packets received, packetBytes"
424	1425837 232 94956 102389 5.155 5.375 12 48 48 576 27648
424	1433793 20 103043 103043 5.395 5.395 1 48 48 48 2304
vector 425 Highway5G.car[6].app[0] voIPReceivedThroughput:vector ETV
attr recordingmode vector
attr source voIPReceivedThroughput
attr title "Throughput received at the application level"
attr unit Bps
425	1426069 388 94957 102390 5.155 5.375 12 7.7594568380213 89.302325581395 588.56630730993 36724.734066533
425	1433813 33 103044 103044 5.395 5.395 1 96.385542168675 96.385542168675 96.385542168675 9290.1727391494
vector 426 Highway5G.car[6].cellularNic.nrMac harqErrorRate_1st_Dl:vector ETV
attr recordingmode vector
attr source harqErrorRate_1st_Dl
attr title "Harq Error Rate Dl (1st tx)"
attr unit ""
426	1426457 220 95024 102448 5.156 5.376 12 0 0 0 0
426	1433846 19 103103 103103 5.396 5.396 1 0 0 0 0
vector 427 Highway5G.car[6].cellularNic.nrMac harqErrorRateDl:vector ETV
attr recordingmode vector
attr source harqErrorRateDl
attr title "Harq Error Rate Dl"
attr unit ""
427	1426677 220 95024 102448 5.156 5.376 12 0 0 0 0
427	1433865 19 103103 103103 5.396 5.396 1 0 0 0 0
vector 428 Highway5G.car[6].cellularNic.nrMac harqTxAttemptsDl:vector ETV
attr recordingmode vector
attr source harqTxAttemptsDl
attr title "Harq Tx Attempts Dl"
attr unit ""
428	1426897 220 95024 102448 5.156 5.376 12 1 1 12 12
428	1433884 4023 103103 103103 5.396 5.396 1 1 1 1 1
vector 429 Highway5G.router.ppp[0].queue outgoingDataRate:vector ETV
attr interpolationmode linear
attr recordingmode vector
attr source throughput(packetPulled)
attr title "outgoing datarate"
attr unit bps
429	1442039 927 103240 103240 0.1 5.401 55 0 0 0 0
vector 430 Highway5G.router.ppp[0].queue incomingDataRate:vector ETV
attr interpolationmode linear
attr recordingmode vector
attr source throughput(packetPushStarted)
attr title "incoming datarate"
attr unit bps
430	1442966 927 103240 103240 0.1 5.401 55 0 0 0 0
vector 431 Highway5G.upf.pppIf.queue outgoingDataRate:vector ETV
attr interpolationmode linear
attr recordingmode vector
attr source throughput(packetPulled)
attr title "outgoing datarate"
attr unit bps
431	1443893 927 103240 103240 0.1 5.401 55 0 0 0 0
vector 432 Highway5G.upf.pppIf.queue incomingDataRate:vector ETV
attr interpolationmode linear
attr recordingmode vector
attr source throughput(packetPushStarted)
attr title "incoming datarate"
attr unit bps
432	1444820 927 103240 103240 0.1 5.401 55 0 0 0 0
vector 433 Highway5G.gNodeB1.pppIf.queue outgoingDataRate:vector ETV
attr interpolationmode linear
attr recordingmode vector
attr source throughput(packetPulled)
attr title "outgoing datarate"
attr unit bps
433	1445747 927 103240 103240 0.1 5.401 55 0 0 0 0
vector 434 Highway5G.gNodeB1.pppIf.queue incomingDataRate:vector ETV
attr interpolationmode linear
attr recordingmode vector
attr source throughput(packetPushStarted)
attr title "incoming datarate"
attr unit bps
434	1446674 927 103240 103240 0.1 5.401 55 0 0 0 0
vector 435 Highway5G.gNodeB1.x2ppp[0].queue outgoingDataRate:vector ETV
attr interpolationmode linear
attr recordingmode vector
attr source throughput(packetPulled)
attr title "outgoing datarate"
attr unit bps
435	1447601 931 103240 103240 0.1 5.401 55 0 33280 33280 1107558400
vector 436 Highway5G.gNodeB1.x2ppp[0].queue incomingDataRate:vector ETV
attr interpolationmode linear
attr recordingmode vector
attr source throughput(packetPushStarted)
attr title "incoming datarate"
attr unit bps
436	1448532 931 103240 103240 0.1 5.401 55 0 33280 33280 1107558400
vector 437 Highway5G.gNodeB1.pppMEHostIf.queue outgoingDataRate:vector ETV
attr interpolationmode linear
attr recordingmode vector
attr source throughput(packetPulled)
attr title "outgoing datarate"
attr unit bps
437	1449463 927 103240 103240 0.1 5.401 55 0 0 0 0
vector 438 Highway5G.gNodeB1.pppMEHostIf.queue incomingDataRate:vector ETV
attr interpolationmode linear
attr recordingmode vector
attr source throughput(packetPushStarted)
attr title "incoming datarate"
attr unit bps
438	1450390 927 103240 103240 0.1 5.401 55 0 0 0 0
vector 439 Highway5G.gNodeB2.pppIf.queue outgoingDataRate:vector ETV
attr interpolationmode linear
attr recordingmode vector
attr source throughput(packetPulled)
attr title "outgoing datarate"
attr unit bps
439	1451317 927 103240 103240 0.1 5.401 55 0 0 0 0
vector 440 Highway5G.gNodeB2.pppIf.queue incomingDataRate:vector ETV
attr interpolationmode linear
attr recordingmode vector
attr source throughput(packetPushStarted)
attr title "incoming datarate"
attr unit bps
440	1452244 927 103240 103240 0.1 5.401 55 0 0 0 0
vector 441 Highway5G.gNodeB2.x2ppp[0].queue outgoingDataRate:vector ETV
attr interpolationmode linear
attr recordingmode vector
attr source throughput(packetPulled)
attr title "outgoing datarate"
attr unit bps
441	1453171 931 103240 103240 0.1 5.401 55 0 33280 33280 1107558400
vector 442 Highway5G.gNodeB2.x2ppp[0].queue incomingDataRate:vector ETV
attr interpolationmode linear
attr recordingmode vector
attr source throughput(packetPushStarted)
attr title "incoming datarate"
attr unit bps
442	1454102 931 103240 103240 0.1 5.401 55 0 33280 33280 1107558400
vector 443 Highway5G.gNodeB2.pppMEHostIf.queue outgoingDataRate:vector ETV
attr interpolationmode linear
attr recordingmode vector
attr source throughput(packetPulled)
attr title "outgoing datarate"
attr unit bps
443	1455033 927 103240 103240 0.1 5.401 55 0 0 0 0
vector 444 Highway5G.gNodeB2.pppMEHostIf.queue incomingDataRate:vector ETV
attr interpolationmode linear
attr recordingmode vector
attr source throughput(packetPushStarted)
attr title "incoming datarate"
attr unit bps
444	1455960 927 103240 103240 0.1 5.401 55 0 0 0 0
vector 445 Highway5G.car[3].app[0] voIPFrameDelay:vector ETV
attr recordingmode vector
attr source voIPFrameDelay
attr title "VoIP Frame Delay"
attr unit s
445	1456887 805 103240 103240 5.401 5.401 35 0.005 0.005 0.175 0.000875
vector 446 Highway5G.car[4].app[0] voIPFrameDelay:vector ETV
attr recordingmode vector
attr source voIPFrameDelay
attr title "VoIP Frame Delay"
attr unit s
446	1457692 644 103240 103240 5.401 5.401 28 0.005 0.005 0.14 0.0007
vector 447 Highway5G.car[5].app[0] voIPFrameDelay:vector ETV
attr recordingmode vector
attr source voIPFrameDelay
attr title "VoIP Frame Delay"
attr unit s
447	1458336 1449 103240 103240 5.401 5.401 63 0.005 0.005 0.315 0.001575
vector 448 Highway5G.car[6].app[0] voIPFrameDelay:vector ETV
attr recordingmode vector
attr source voIPFrameDelay
attr title "VoIP Frame Delay"
attr unit s
448	1459785 300 103240 103240 5.401 5.401 13 0.005 0.005 0.065 0.000325
