file 414711819 1751838204                                       
version 2
run VoIP-UL-0-20250706-18:15:26-1041547
attr configname VoIP-UL
attr datetime 20250706-18:15:26
attr datetimef 20250706-181526
attr experiment VoIP-UL
attr inifile omnetpp.ini
attr iterationvars ""
attr iterationvarsd ""
attr iterationvarsf ""
attr measurement ""
attr network Highway5G
attr processid 1041547
attr repetition 0
attr replication #0
attr resultdir results
attr runnumber 0
attr seedset 0
config image-path ../../../../../../../OMNET/omnetpp-6.0.3/workspaces/inet4.5/images:../../../../../../../OMNET/omnetpp-6.0.3/workspaces/simu5g/images:../../../../../../../Dev/veins_new/images
config *.server.numApps 45
config *.server.app[*].typename VoIPReceiver
config *.server.app[*].localPort "3000 + ancestorIndex(0)"
config *.car[*].numApps 1
config *.car[*].app[0].typename VoIPSender
config *.car[*].app[0].destAddress "\"server\""
config *.car[*].app[0].destPort "3000 + ancestorIndex(1)"
config cmdenv-express-mode true
config cmdenv-autoflush true
config image-path ../../images
config network Highway5G
config debug-on-errors false
config print-undisposed false
config sim-time-limit 240s
config **.sctp.**.scalar-recording true
config **.sctp.**.vector-recording true
config **.routingRecorder.enabled false
config *.veinsManager.host "\"localhost\""
config *.veinsManager.port 9999
config *.veinsManager.moduleType "\"simu5g.nodes.cars.NRCar\""
config *.veinsManager.moduleName "\"car\""
config *.veinsManager.launchConfig "xmldoc(\"cenarioA.launchd.xml\")"
config *.veinsManager.updateInterval 0.1s
config *.physicalEnvironment.config "xmldoc(\"obstacles.xml\")"
config *.radioMedium.obstacleLoss.typename IdealObstacleLoss
config *.car[*].mobility.typename projectpredicthandover.veins_inet.VeinsInetMobility
config **.mobility.constraintAreaMaxX 3000m
config **.mobility.constraintAreaMinX 0m
config **.mobility.constraintAreaMaxY 3000m
config **.mobility.constraintAreaMinY 0m
config **.mobility.constraintAreaMinZ 0m
config **.mobility.constraintAreaMaxZ 10m
config *.gNodeB1.mobility.initialX 1129.71m
config *.gNodeB1.mobility.initialY 555.867m
config *.gNodeB1.mobility.initialZ 0m
config *.gNodeB1.mobility.constraintAreaMinX 1129.71m
config *.gNodeB1.mobility.constraintAreaMaxX 1129.71m
config *.gNodeB1.mobility.constraintAreaMinY 555.867m
config *.gNodeB1.mobility.constraintAreaMaxY 555.867m
config *.gNodeB1.mobility.constraintAreaMinZ 0m
config *.gNodeB1.mobility.constraintAreaMaxZ 0m
config *.gNodeB2.mobility.initialX 1600m
config *.gNodeB2.mobility.initialY 800m
config *.gNodeB2.mobility.initialZ 0m
config *.gNodeB2.mobility.constraintAreaMinX 1600m
config *.gNodeB2.mobility.constraintAreaMaxX 1600m
config *.gNodeB2.mobility.constraintAreaMinY 800m
config *.gNodeB2.mobility.constraintAreaMaxY 800m
config *.gNodeB2.mobility.constraintAreaMinZ 0m
config *.gNodeB2.mobility.constraintAreaMaxZ 0m
config *.gNodeB3.mobility.initialX 1900m
config *.gNodeB3.mobility.initialY 1100m
config *.gNodeB3.mobility.initialZ 0m
config *.gNodeB3.mobility.constraintAreaMinX 1900m
config *.gNodeB3.mobility.constraintAreaMaxX 1900m
config *.gNodeB3.mobility.constraintAreaMinY 1100m
config *.gNodeB3.mobility.constraintAreaMaxY 1100m
config *.gNodeB3.mobility.constraintAreaMinZ 0m
config *.gNodeB3.mobility.constraintAreaMaxZ 0m
config *.gNodeB4.mobility.initialX 2100m
config *.gNodeB4.mobility.initialY 500m
config *.gNodeB4.mobility.initialZ 0m
config *.gNodeB4.mobility.constraintAreaMinX 2100m
config *.gNodeB4.mobility.constraintAreaMaxX 2100m
config *.gNodeB4.mobility.constraintAreaMinY 500m
config *.gNodeB4.mobility.constraintAreaMaxY 500m
config *.gNodeB4.mobility.constraintAreaMinZ 0m
config *.gNodeB4.mobility.constraintAreaMaxZ 0m
config **.numBands 25
config **.ueTxPower 26
config **.eNodeBTxPower 50
config *.car[*].cellularNic.nrPhy.dynamicCellAssociation true
config *.car[*].masterId 0
config *.car[*].macCellId 0
config *.car[*].nrMasterId 1
config *.car[*].nrMacCellId 1
config *.car[*].cellularNic.nrPhy.handoverThreshold -8
config **.gNodeB1.macCellId 1
config **.gNodeB1.macNodeId 1
config **.gNodeB2.macCellId 2
config **.gNodeB2.macNodeId 2
config **.gNodeB3.macCellId 3
config **.gNodeB3.macNodeId 3
config **.gNodeB4.macCellId 4
config **.gNodeB4.macNodeId 4
config *.car[*].cellularNic.nrMac.dynamicCellAssociation true
config *.car[*].cellularNic.nrMac.enableHandover true
config *.car[*].cellularNic.nrPhy.enableHandover true
config *.gNodeB*.cellularNic.phy.enableHandover true
config *.gNodeB*.cellularNic.nrMac.enableHandover true
config *.gNodeB*.cellularNic.phy.handoverLatency 10ms
config *.gNodeB*.cellularNic.nrMac.handoverLatency 10ms
config *.gNodeB*.cellInfo.broadcastMessageInterval 1s
config *.gNodeB*.x2App[*].server.localPort "5000 + ancestorIndex(1)"
config *.gNodeB*.numX2Apps 2
config *.gNodeB1.x2App[0].client.connectAddress "\"gNodeB2%x2ppp0\""
config *.gNodeB1.x2App[1].client.connectAddress "\"gNodeB3%x2ppp0\""
config *.gNodeB2.x2App[0].client.connectAddress "\"gNodeB1%x2ppp0\""
config *.gNodeB2.x2App[1].client.connectAddress "\"gNodeB4%x2ppp0\""
config *.gNodeB3.x2App[0].client.connectAddress "\"gNodeB1%x2ppp0\""
config *.gNodeB3.x2App[1].client.connectAddress "\"gNodeB4%x2ppp0\""
config *.gNodeB4.x2App[0].client.connectAddress "\"gNodeB3%x2ppp0\""
config *.gNodeB4.x2App[1].client.connectAddress "\"gNodeB2%x2ppp0\""
config **.sctp.nagleEnabled false
config **.sctp.enableHeartbeats false
config *.visualizer.*.obstacleLossVisualizer.displayIntersections true
config *.visualizer.*.obstacleLossVisualizer.displayFaceNormalVectors true
config *.visualizer.*.obstacleLossVisualizer.intersectionLineColor "\"yellow\""
config *.visualizer.*.mediumVisualizer.signalPropagationAnimationSpeed 500/3e8
config *.visualizer.*.mediumVisualizer.signalTransmissionAnimationSpeed 50000/3e8
config *.visualizer.*.mediumVisualizer.displaySignals true
config *.visualizer.canvasVisualizer.mediumVisualizer.displaySignalDepartures false
config *.visualizer.canvasVisualizer.mediumVisualizer.displaySignalArrivals false
config *.visualizer.*.physicalLinkVisualizer.displayLinks true
config **.scalar-recording true
config **.vector-recording true
config **.mobility.tracemobility true
config **.car[*].mobility.posX.vector-recording true
config **.car[*].mobility.posY.vector-recording true
config **.car[*].mobility.posZ.vector-recording true
config **.car[*].mobility.speed.vector-recording true
config **.car[*].mobility.lastPosition.vector-recording true
config **.car[*].app[*].voIPGeneratedThroughput.vector-recording true
config **.car[*].cellularNic.nrPhy.servingCell.vector-recording true
config **.car[*].cellularNic.nrMac.macDelayDL.vector-recording true
config **.car[*].cellularNic.nrMac.macDelayUL.vector-recording true
config **.car[*].cellularNic.nrMac.macThroughputDL.vector-recording true
config **.car[*].cellularNic.nrMac.macThroughputUL.vector-recording true
config **.car[*].cellularNic.nrMac.macCellPacketLossDL.vector-recording true
config **.car[*].cellularNic.nrMac.macCellPacketLossUL.vector-recording true
config **.car[*].cellularNic.nrMac.macBufferOverflowDL.vector-recording true
config **.car[*].cellularNic.nrMac.macBufferOverflowUL.vector-recording true
config **.car[*].cellularNic.nrMac.harqErrorRateDL.vector-recording true
config **.car[*].cellularNic.nrMac.harqErrorRateUL.vector-recording true
config **.car[*].cellularNic.nrMac.harqTxAttemptsDL.vector-recording true
config **.car[*].cellularNic.nrMac.harqTxAttemptsUL.vector-recording true
config **.car[*].cellularNic.nrMac.receivedPacketFromUpperLayer.vector-recording true
config **.car[*].cellularNic.nrMac.receivedPacketFromLowerLayer.vector-recording true
config **.car[*].cellularNic.nrMac.sentPacketToUpperLayer.vector-recording true
config **.car[*].cellularNic.nrMac.sentPacketToLowerLayer.vector-recording true
config **.car[*].cellularNic.nrMac.measuredItbs.vector-recording true
config **.car[*].cellularNic.nrMac.macDelayD2D.vector-recording true
config **.car[*].cellularNic.nrMac.macThroughputD2D.vector-recording true
config **.car[*].cellularNic.nrMac.rcvdD2DModeSwitchNotification.vector-recording true
config **.car[*].cellularNic.nrPhy.averageCqiDL.vector-recording true
config **.car[*].cellularNic.nrPhy.averageCqiUL.vector-recording true

vector 0 Highway5G.server.ppp[0].queue queueLength:vector ETV
attr autoWarmupFilter false
attr interpolationmode sample-hold
attr recordingmode vector
attr source "warmup(atomic(constant0(packetPushEnded) + count(packetPushStarted) - count(packetPulled) - count(packetRemoved) - count(packetDropped)))"
attr title "queue length"
attr unit pk
0	183515 40 0 0 0 0 5 0 0 0 0
vector 1 Highway5G.server.ppp[0].queue queueBitLength:vector ETV
attr autoWarmupFilter false
attr interpolationmode sample-hold
attr recordingmode vector
attr source "warmup(atomic(constant0(packetPushEnded) + sum(packetLength(packetPushStarted)) - sum(packetLength(packetPulled)) - sum(packetLength(packetRemoved)) - sum(packetLength(packetDropped))))"
attr title "queue bit length"
attr unit b
1	183555 40 0 0 0 0 5 0 0 0 0
vector 2 Highway5G.server.ppp[0].ppp transmissionState:vector ETV
attr interpolationmode sample-hold
attr recordingmode vector
attr source transmissionStateChanged
attr title "tx state"
2	183595 8 0 0 0 0 1 0 0 0 0
vector 3 Highway5G.server.udp passedUpPk:vector(count) ETV
attr interpolationmode none
attr recordingmode vector(count)
attr source packetSentToUpper
attr title "packets passed up, count"
3	183603 110244 0 673426 0 17.0450003588 4058 0 4057 8231653 22266621365
3	12473974 133158 673634 1342991 17.0480003588 25.8430004188 4671 4058 8728 29861703 199398617199
3	25755027 138439 1343179 2082352 25.8450003588 33.5360003588 4657 8729 13385 51492449 577768623321
3	39535932 143790 2082538 2839870 33.5380003588 40.1440003588 4793 13386 18178 75643126 1202975552904
3	53389261 149850 2840004 3545504 40.1450003588 45.0440004788 4995 18179 23173 103276620 2145732842610
3	67317106 146160 3545783 4288484 45.0460003588 49.8510004476 4872 23174 28045 124769484 3204921071996
3	81229158 150030 4288779 4999664 49.8530003588 54.2040003588 5001 28046 33046 152760546 4676646555616
3	95153208 149970 4999828 5708302 54.2050003588 58.2140003588 4999 33047 38045 177694454 6326737479384
3	109075918 149280 5708310 6456180 58.2140004188 62.4120004788 4976 38046 43021 201694696 8185659345416
3	123088207 153600 6456370 7168514 62.4130003588 66.2540004788 5120 43022 48141 233377280 10648871298560
3	137211652 151469 7168916 7889780 66.2560003588 70.2670004188 5049 48142 53190 255812634 12971728841544
3	151137241 141060 7890142 8616533 70.2690003588 74.5810004788 4702 53191 57892 261156133 14513666326995
3	165264644 154320 8617023 9315764 74.5840003588 78.4760003588 5144 57893 63036 311029388 18817579265796
3	179208149 149610 9316005 10057236 78.4770003588 83.1510003588 4973 63037 68009 325845879 21360648355579
3	193252449 158472 10057473 10749292 83.1520003588 87.2830003588 5112 68010 73121 360730836 25466284271076
3	207807523 152179 10749480 11417134 87.2840003588 91.3150003588 4909 73122 78030 371002584 28048749493094
3	222308149 154194 11417342 12120662 91.3160003588 95.8710004188 4974 78031 83004 400494045 32257034278075
3	237097616 154639 12120844 12855519 95.8720003588 101.0570003588 4958 83005 87962 423827193 36240388217895
3	251553246 162048 12855769 13557311 101.0590003588 106.0910003588 5064 87963 93026 458264148 41481206749276
3	266566111 155552 13557477 14258129 106.0920003588 111.3090004788 4861 93027 97887 464016477 44303192688699
3	281891892 146982 14258358 14962216 111.3110003588 117.4340003588 4518 97888 102405 452461887 45320159606055
3	296803925 157311 14962535 15670530 117.4370003588 123.9930003588 4767 102406 107172 499529163 52354188685015
3	312014301 159027 15670888 16380165 123.9970003588 131.1820003588 4819 107173 111991 528075658 57876912628326
3	327712154 152592 16380542 17121018 131.1870003588 140.4720004188 4624 111992 116615 528539384 60422140435544
3	342694076 148995 17121091 17831168 140.4730003588 150.7340003588 4515 116616 121130 536711595 63808187372965
3	358288567 140907 17831510 18516574 150.7390003588 161.9040003588 4270 121131 125400 526343685 64886505376595
3	372987860 139425 18516665 19215376 161.9050003588 177.2590003588 4225 125401 129625 538742425 68702947746225
3	389479316 107976 19215483 19947468 177.2610003588 207.3550003588 3272 129626 132897 429487628 56378109447420
3	405299532 41811 19947802 20291335 207.3750003588 228.0880003588 1267 132898 134164 169183777 22591448418245
vector 4 Highway5G.server.udp droppedPkWrongPort:vector(count) ETV
attr interpolationmode none
attr recordingmode vector(count)
attr source packetDropReasonIsNoPortFound(packetDropped)
attr title "packets dropped (wrong port), count"
4	293847 8 0 0 0 0 1 0 0 0 0
vector 5 Highway5G.server.udp droppedPkBadChecksum:vector(count) ETV
attr interpolationmode none
attr recordingmode vector(count)
attr source packetDropReasonIsIncorrectlyReceived(packetDropped)
attr title "packets dropped (checksum error), count"
5	293855 8 0 0 0 0 1 0 0 0 0
vector 6 Highway5G.router.ppp[0].queue queueLength:vector ETV
attr autoWarmupFilter false
attr interpolationmode sample-hold
attr recordingmode vector
attr source "warmup(atomic(constant0(packetPushEnded) + count(packetPushStarted) - count(packetPulled) - count(packetRemoved) - count(packetDropped)))"
attr title "queue length"
attr unit pk
6	293863 99211 0 673422 0 17.0450002488 4062 0 0 0 0
6	12607132 119145 673626 1342983 17.0480002488 25.8430003088 4671 0 0 0 0
6	25893466 121082 1343171 2082348 25.8450002488 33.5360002488 4657 0 0 0 0
6	39679722 124618 2082530 2839866 33.5380002488 40.1440002488 4793 0 0 0 0
6	53539111 129870 2839996 3545496 40.1450002488 45.0440003688 4995 0 0 0 0
6	67463266 126672 3545775 4288476 45.0460002488 49.8510003376 4872 0 0 0 0
6	81379188 130026 4288771 4999660 49.8530002488 54.2040002488 5001 0 0 0 0
6	95303178 130000 4999824 5708298 54.2050002488 58.2140003088 5000 0 0 0 0
6	109225198 129350 5708307 6456172 58.2140003688 62.4120003688 4975 0 0 0 0
6	123241807 133120 6456361 7168506 62.4130002488 66.2540003688 5120 0 0 0 0
6	137363121 131273 7168901 7889772 66.2560002488 70.2670003088 5049 0 0 0 0
6	151278301 122252 7890134 8616525 70.2690002488 74.5810003688 4702 0 0 0 0
6	165418964 133744 8617019 9315760 74.5840002488 78.4760002488 5144 0 0 0 0
6	179357759 129718 9315990 10057232 78.4770002488 83.1510002488 4973 0 0 0 0
6	193410921 138024 10057464 10749288 83.1520002488 87.2830002488 5112 0 0 0 0
6	207959702 132543 10749472 11417130 87.2840002488 91.3150002488 4909 0 0 0 0
6	222462343 134298 11417333 12120654 91.3160002488 95.8710003088 4974 0 0 0 0
6	237252255 134807 12120840 12855515 95.8720002488 101.0570002488 4958 0 0 0 0
6	251715294 141792 12855761 13557307 101.0590002488 106.0910002488 5064 0 0 0 0
6	266721663 136108 13557469 14258121 106.0920002488 111.3090003688 4861 0 0 0 0
6	282038874 126504 14258350 14962212 111.3110002488 117.4340002488 4518 0 0 0 0
6	296961236 133476 14962527 15670526 117.4370002488 123.9930002488 4767 0 0 0 0
6	312173328 134932 15670884 16380161 123.9970002488 131.1820002488 4819 0 0 0 0
6	327864746 129472 16380538 17121010 131.1870002488 140.4720003088 4624 0 0 0 0
6	342843071 126420 17121087 17831164 140.4730002488 150.7340002488 4515 0 0 0 0
6	358429474 119557 17831506 18516570 150.7390002488 161.9040002488 4270 0 0 0 0
6	373127285 118300 18516657 19215372 161.9050002488 177.2590002488 4225 0 0 0 0
6	389587292 91616 19215475 19947464 177.2610002488 207.3550002488 3272 0 0 0 0
6	405341343 35476 19947798 20291331 207.3750002488 228.0880002488 1267 0 0 0 0
vector 7 Highway5G.router.ppp[0].queue queueBitLength:vector ETV
attr autoWarmupFilter false
attr interpolationmode sample-hold
attr recordingmode vector
attr source "warmup(atomic(constant0(packetPushEnded) + sum(packetLength(packetPushStarted)) - sum(packetLength(packetPulled)) - sum(packetLength(packetRemoved)) - sum(packetLength(packetDropped))))"
attr title "queue bit length"
attr unit b
7	393074 99211 0 673422 0 17.0450002488 4062 0 0 0 0
7	12726277 119145 673626 1342983 17.0480002488 25.8430003088 4671 0 0 0 0
7	26014548 121082 1343171 2082348 25.8450002488 33.5360002488 4657 0 0 0 0
7	39804340 124618 2082530 2839866 33.5380002488 40.1440002488 4793 0 0 0 0
7	53668981 129870 2839996 3545496 40.1450002488 45.0440003688 4995 0 0 0 0
7	67589938 126672 3545775 4288476 45.0460002488 49.8510003376 4872 0 0 0 0
7	81509214 130026 4288771 4999660 49.8530002488 54.2040002488 5001 0 0 0 0
7	95433178 130000 4999824 5708298 54.2050002488 58.2140003088 5000 0 0 0 0
7	109354548 129350 5708307 6456172 58.2140003688 62.4120003688 4975 0 0 0 0
7	123374927 133120 6456361 7168506 62.4130002488 66.2540003688 5120 0 0 0 0
7	137494394 131273 7168901 7889772 66.2560002488 70.2670003088 5049 0 0 0 0
7	151400553 122252 7890134 8616525 70.2690002488 74.5810003688 4702 0 0 0 0
7	165552708 133744 8617019 9315760 74.5840002488 78.4760002488 5144 0 0 0 0
7	179487477 129718 9315990 10057232 78.4770002488 83.1510002488 4973 0 0 0 0
7	193548945 138024 10057464 10749288 83.1520002488 87.2830002488 5112 0 0 0 0
7	208092245 132543 10749472 11417130 87.2840002488 91.3150002488 4909 0 0 0 0
7	222596641 134298 11417333 12120654 91.3160002488 95.8710003088 4974 0 0 0 0
7	237387062 134807 12120840 12855515 95.8720002488 101.0570002488 4958 0 0 0 0
7	251857086 141792 12855761 13557307 101.0590002488 106.0910002488 5064 0 0 0 0
7	266857771 136108 13557469 14258121 106.0920002488 111.3090003688 4861 0 0 0 0
7	282165378 126504 14258350 14962212 111.3110002488 117.4340002488 4518 0 0 0 0
7	297094712 133476 14962527 15670526 117.4370002488 123.9930002488 4767 0 0 0 0
7	312308260 134932 15670884 16380161 123.9970002488 131.1820002488 4819 0 0 0 0
7	327994218 129472 16380538 17121010 131.1870002488 140.4720003088 4624 0 0 0 0
7	342969491 126420 17121087 17831164 140.4730002488 150.7340002488 4515 0 0 0 0
7	358549031 119557 17831506 18516570 150.7390002488 161.9040002488 4270 0 0 0 0
7	373245585 118300 18516657 19215372 161.9050002488 177.2590002488 4225 0 0 0 0
7	389678908 91616 19215475 19947464 177.2610002488 207.3550002488 3272 0 0 0 0
7	405376819 35476 19947798 20291331 207.3750002488 228.0880002488 1267 0 0 0 0
vector 8 Highway5G.router.ppp[0].ppp transmissionState:vector ETV
attr interpolationmode sample-hold
attr recordingmode vector
attr source transmissionStateChanged
attr title "tx state"
8	492285 198351 0 673423 0 17.0450003088 8115 0 1 4057 4057
8	12845422 238290 673626 1342988 17.0480002488 25.8430003688 9342 0 1 4671 4671
8	26135630 242164 1343171 2082349 25.8450002488 33.5360003088 9314 0 1 4657 4657
8	39928958 249236 2082530 2839867 33.5380002488 40.1440003088 9586 0 1 4793 4793
8	53798851 259740 2839996 3545501 40.1450002488 45.0440004288 9990 0 1 4995 4995
8	67716610 253344 3545775 4288481 45.0460002488 49.8510003976 9744 0 1 4872 4872
8	81639240 260052 4288771 4999661 49.8530002488 54.2040003088 10002 0 1 5001 5001
8	95563178 260000 4999824 5708305 54.2050002488 58.2140003688 10000 0 1 5000 5000
8	109483898 258700 5708307 6456177 58.2140003688 62.4120004288 9950 0 1 4975 4975
8	123508047 266240 6456361 7168511 62.4130002488 66.2540004288 10240 0 1 5120 5120
8	137625667 262546 7168901 7889777 66.2560002488 70.2670003688 10098 0 1 5049 5049
8	151522805 244504 7890134 8616530 70.2690002488 74.5810004288 9404 0 1 4702 4702
8	165686452 267488 8617019 9315761 74.5840002488 78.4760003088 10288 0 1 5144 5144
8	179617195 259436 9315990 10057233 78.4770002488 83.1510003088 9946 0 1 4973 4973
8	193686969 276048 10057464 10749289 83.1520002488 87.2830003088 10224 0 1 5112 5112
8	208224788 265086 10749472 11417131 87.2840002488 91.3150003088 9818 0 1 4909 4909
8	222730939 268596 11417333 12120659 91.3160002488 95.8710003688 9948 0 1 4974 4974
8	237521869 269614 12120840 12855516 95.8720002488 101.0570003088 9916 0 1 4958 4958
8	251998878 283584 12855761 13557308 101.0590002488 106.0910003088 10128 0 1 5064 5064
8	266993879 272216 13557469 14258126 106.0920002488 111.3090004288 9722 0 1 4861 4861
8	282291882 253008 14258350 14962213 111.3110002488 117.4340003088 9036 0 1 4518 4518
8	297228188 266952 14962527 15670527 117.4370002488 123.9930003088 9534 0 1 4767 4767
8	312443192 269864 15670884 16380162 123.9970002488 131.1820003088 9638 0 1 4819 4819
8	328123690 258944 16380538 17121015 131.1870002488 140.4720003688 9248 0 1 4624 4624
8	343095911 252840 17121087 17831165 140.4730002488 150.7340003088 9030 0 1 4515 4515
8	358668588 239114 17831506 18516571 150.7390002488 161.9040003088 8540 0 1 4270 4270
8	373363885 236600 18516657 19215373 161.9050002488 177.2590003088 8450 0 1 4225 4225
8	389770524 183232 19215475 19947465 177.2610002488 207.3550003088 6544 0 1 3272 3272
8	405412295 70952 19947798 20291332 207.3750002488 228.0880003088 2534 0 1 1267 1267
vector 9 Highway5G.router.ppp[1].queue queueLength:vector ETV
attr autoWarmupFilter false
attr interpolationmode sample-hold
attr recordingmode vector
attr source "warmup(atomic(constant0(packetPushEnded) + count(packetPushStarted) - count(packetPulled) - count(packetRemoved) - count(packetDropped)))"
attr title "queue length"
attr unit pk
9	690636 40 0 0 0 0 5 0 0 0 0
vector 10 Highway5G.router.ppp[1].queue queueBitLength:vector ETV
attr autoWarmupFilter false
attr interpolationmode sample-hold
attr recordingmode vector
attr source "warmup(atomic(constant0(packetPushEnded) + sum(packetLength(packetPushStarted)) - sum(packetLength(packetPulled)) - sum(packetLength(packetRemoved)) - sum(packetLength(packetDropped))))"
attr title "queue bit length"
attr unit b
10	690676 45 0 0 0 0 5 0 0 0 0
vector 11 Highway5G.router.ppp[1].ppp transmissionState:vector ETV
attr interpolationmode sample-hold
attr recordingmode vector
attr source transmissionStateChanged
attr title "tx state"
11	690721 9 0 0 0 0 1 0 0 0 0
vector 12 Highway5G.upf.ppp[0].queue queueLength:vector ETV
attr autoWarmupFilter false
attr interpolationmode sample-hold
attr recordingmode vector
attr source "warmup(atomic(constant0(packetPushEnded) + count(packetPushStarted) - count(packetPulled) - count(packetRemoved) - count(packetDropped)))"
attr title "queue length"
attr unit pk
12	690730 45 0 0 0 0 5 0 0 0 0
vector 13 Highway5G.upf.ppp[0].queue queueBitLength:vector ETV
attr autoWarmupFilter false
attr interpolationmode sample-hold
attr recordingmode vector
attr source "warmup(atomic(constant0(packetPushEnded) + sum(packetLength(packetPushStarted)) - sum(packetLength(packetPulled)) - sum(packetLength(packetRemoved)) - sum(packetLength(packetDropped))))"
attr title "queue bit length"
attr unit b
13	690775 45 0 0 0 0 5 0 0 0 0
vector 14 Highway5G.upf.ppp[0].ppp transmissionState:vector ETV
attr interpolationmode sample-hold
attr recordingmode vector
attr source transmissionStateChanged
attr title "tx state"
14	690820 9 0 0 0 0 1 0 0 0 0
vector 15 Highway5G.upf.ppp[1].queue queueLength:vector ETV
attr autoWarmupFilter false
attr interpolationmode sample-hold
attr recordingmode vector
attr source "warmup(atomic(constant0(packetPushEnded) + count(packetPushStarted) - count(packetPulled) - count(packetRemoved) - count(packetDropped)))"
attr title "queue length"
attr unit pk
15	690829 45 0 0 0 0 5 0 0 0 0
vector 16 Highway5G.upf.ppp[1].queue queueBitLength:vector ETV
attr autoWarmupFilter false
attr interpolationmode sample-hold
attr recordingmode vector
attr source "warmup(atomic(constant0(packetPushEnded) + sum(packetLength(packetPushStarted)) - sum(packetLength(packetPulled)) - sum(packetLength(packetRemoved)) - sum(packetLength(packetDropped))))"
attr title "queue bit length"
attr unit b
16	690874 45 0 0 0 0 5 0 0 0 0
vector 17 Highway5G.upf.ppp[1].ppp transmissionState:vector ETV
attr interpolationmode sample-hold
attr recordingmode vector
attr source transmissionStateChanged
attr title "tx state"
17	690919 9 0 0 0 0 1 0 0 0 0
vector 18 Highway5G.upf.ppp[2].queue queueLength:vector ETV
attr autoWarmupFilter false
attr interpolationmode sample-hold
attr recordingmode vector
attr source "warmup(atomic(constant0(packetPushEnded) + count(packetPushStarted) - count(packetPulled) - count(packetRemoved) - count(packetDropped)))"
attr title "queue length"
attr unit pk
18	690928 45 0 0 0 0 5 0 0 0 0
vector 19 Highway5G.upf.ppp[2].queue queueBitLength:vector ETV
attr autoWarmupFilter false
attr interpolationmode sample-hold
attr recordingmode vector
attr source "warmup(atomic(constant0(packetPushEnded) + sum(packetLength(packetPushStarted)) - sum(packetLength(packetPulled)) - sum(packetLength(packetRemoved)) - sum(packetLength(packetDropped))))"
attr title "queue bit length"
attr unit b
19	690973 45 0 0 0 0 5 0 0 0 0
vector 20 Highway5G.upf.ppp[2].ppp transmissionState:vector ETV
attr interpolationmode sample-hold
attr recordingmode vector
attr source transmissionStateChanged
attr title "tx state"
20	691018 9 0 0 0 0 1 0 0 0 0
vector 21 Highway5G.upf.ppp[3].queue queueLength:vector ETV
attr autoWarmupFilter false
attr interpolationmode sample-hold
attr recordingmode vector
attr source "warmup(atomic(constant0(packetPushEnded) + count(packetPushStarted) - count(packetPulled) - count(packetRemoved) - count(packetDropped)))"
attr title "queue length"
attr unit pk
21	691027 45 0 0 0 0 5 0 0 0 0
vector 22 Highway5G.upf.ppp[3].queue queueBitLength:vector ETV
attr autoWarmupFilter false
attr interpolationmode sample-hold
attr recordingmode vector
attr source "warmup(atomic(constant0(packetPushEnded) + sum(packetLength(packetPushStarted)) - sum(packetLength(packetPulled)) - sum(packetLength(packetRemoved)) - sum(packetLength(packetDropped))))"
attr title "queue bit length"
attr unit b
22	691072 45 0 0 0 0 5 0 0 0 0
vector 23 Highway5G.upf.ppp[3].ppp transmissionState:vector ETV
attr interpolationmode sample-hold
attr recordingmode vector
attr source transmissionStateChanged
attr title "tx state"
23	691117 9 0 0 0 0 1 0 0 0 0
vector 24 Highway5G.upf.pppIf.queue queueLength:vector ETV
attr autoWarmupFilter false
attr interpolationmode sample-hold
attr recordingmode vector
attr source "warmup(atomic(constant0(packetPushEnded) + count(packetPushStarted) - count(packetPulled) - count(packetRemoved) - count(packetDropped)))"
attr title "queue length"
attr unit pk
24	691126 120445 0 673418 0 17.0450001388 4740 0 3 864 1054
24	13083712 148873 673621 1343168 17.0480001388 25.8450002276 5619 0 3 972 1002
24	26377794 150363 1343445 2082344 25.8480001388 33.5360001388 5569 0 2 988 1062
24	40178194 165159 2082525 2839862 33.5380001388 40.1440001388 6117 0 3 1882 2508
24	54058591 179685 2839991 3545483 40.1450001388 45.0440002588 6655 0 3 2192 2768
24	67969954 175932 3545765 4288468 45.0460001388 49.8510002276 6516 0 3 2124 2612
24	81899292 191241 4288766 4999656 49.8530001388 54.2040001388 7083 0 3 3786 5838
24	95823178 184518 4999820 5708294 54.2050001388 58.2140002588 6834 0 3 2551 3285
24	109742598 175986 5708489 6456159 58.2150001388 62.4120002588 6518 0 3 2114 2700
24	123774287 193077 6456355 7168493 62.4130001388 66.2540002588 7151 0 3 3379 5151
24	137888213 178955 7168890 7889764 66.2560001388 70.2670001988 6628 0 3 2061 2607
24	151767309 161379 7890129 8616512 70.2690001388 74.5810002588 5977 0 3 1753 2375
24	165953940 193887 8617015 9315756 74.5840001388 78.4760001388 7181 0 3 3427 4953
24	179876631 173937 9315978 10057228 78.4770001388 83.1510001388 6421 0 3 1866 2308
24	193963017 204456 10057446 10749462 83.1520001388 87.2840001388 7302 0 3 3433 4965
24	208489874 181887 10749469 11417126 87.2840002276 91.3150001388 6496 0 3 2540 3756
24	222999535 183008 11417316 12120646 91.3160001388 95.8710001988 6536 0 2 1976 2390
24	237791483 172044 12120836 12855511 95.8720001388 101.0570001388 6104 0 2 1328 1510
24	252282462 186122 12855756 13557466 101.0590001388 106.0920002276 6418 0 2 1538 1724
24	267266095 179597 13557600 14258108 106.0930001388 111.3090002588 6193 0 3 2184 3230
24	282544890 158021 14258340 14962208 111.3110001388 117.4340001388 5449 0 2 1085 1239
24	297495140 166286 14962522 15670522 117.4370001388 123.9930001388 5734 0 2 1001 1035
24	312713056 171622 15670880 16380157 123.9970001388 131.1820001388 5918 0 2 1575 2051
24	328382634 153642 16380534 17121002 131.1870001388 140.4720001988 5298 0 2 688 702
24	343348751 153091 17121083 17831160 140.4730001388 150.7340001388 5279 0 2 1004 1244
24	358907702 140647 17831502 18516566 150.7390001388 161.9040001388 4850 0 1 580 580
24	373600485 134937 18516647 19215368 161.9050001388 177.2590001388 4653 0 2 430 432
24	389953756 96860 19215465 19947460 177.2610001388 207.3550001388 3340 0 1 68 68
24	405483247 36743 19947794 20291327 207.3750001388 228.0880001388 1267 0 0 0 0
vector 25 Highway5G.upf.pppIf.queue queueBitLength:vector ETV
attr autoWarmupFilter false
attr interpolationmode sample-hold
attr recordingmode vector
attr source "warmup(atomic(constant0(packetPushEnded) + sum(packetLength(packetPushStarted)) - sum(packetLength(packetPulled)) - sum(packetLength(packetRemoved)) - sum(packetLength(packetDropped))))"
attr title "queue bit length"
attr unit b
25	811571 122078 0 673418 0 17.0450001388 4740 0 1632 470016 311916544
25	13232585 150802 673621 1343168 17.0480001388 25.8450002276 5619 0 1632 528768 296527872
25	26528157 152302 1343445 2082344 25.8480001388 33.5360001388 5569 0 1088 537472 314284032
25	40343353 168610 2082525 2839862 33.5380001388 40.1440001388 6117 0 1632 1023808 742207488
25	54238276 183781 2839991 3545483 40.1450001388 45.0440002588 6655 0 1632 1192448 819150848
25	68145886 179936 3545765 4288468 45.0460001388 49.8510002276 6516 0 1632 1155456 772984832
25	82090533 197787 4288766 4999656 49.8530001388 54.2040001388 7083 0 1632 2059584 1727674368
25	96007696 189253 4999820 5708294 54.2050001388 58.2140002588 6834 0 1632 1387744 972149760
25	109918584 179921 5708489 6456159 58.2150001388 62.4120002588 6518 0 1632 1150016 799027200
25	123967364 198949 6456355 7168493 62.4130001388 66.2540002588 7151 0 1632 1838176 1524366336
25	138067168 182804 7168890 7889764 66.2560001388 70.2670001988 6628 0 1632 1121184 771505152
25	151928688 164574 7890129 8616512 70.2690001388 74.5810002588 5977 0 1632 953632 702848000
25	166147827 199978 8617015 9315756 74.5840001388 78.4760001388 7181 0 1632 1864288 1465771008
25	180050568 177448 9315978 10057228 78.4770001388 83.1510001388 6421 0 1632 1015104 683020288
25	194167473 210556 10057446 10749462 83.1520001388 87.2840001388 7302 0 1632 1867552 1469322240
25	208671761 186359 10749469 11417126 87.2840002276 91.3150001388 6496 0 1632 1381760 1111535616
25	223182543 186753 11417316 12120646 91.3160001388 95.8710001988 6536 0 1088 1074944 707287040
25	237963527 174609 12120836 12855511 95.8720001388 101.0570001388 6104 0 1088 722432 446863360
25	252468584 189105 12855756 13557466 101.0590001388 106.0920002276 6418 0 1088 836672 510193664
25	267445692 183442 13557600 14258108 106.0930001388 111.3090002588 6193 0 1632 1188096 955873280
25	282702911 160114 14258340 14962208 111.3110001388 117.4340001388 5449 0 1088 590240 366664704
25	297661426 168271 14962522 15670522 117.4370001388 123.9930001388 5734 0 1088 544544 306293760
25	312884678 174534 15670880 16380157 123.9970001388 131.1820001388 5918 0 1088 856800 606964736
25	328536276 155011 16380534 17121002 131.1870001388 140.4720001988 5298 0 1088 374272 207747072
25	343501842 154979 17121083 17831160 140.4730001388 150.7340001388 5279 0 1088 546176 368144384
25	359048349 141807 17831502 18516566 150.7390001388 161.9040001388 4850 0 544 315520 171642880
25	373735422 135796 18516647 19215368 161.9050001388 177.2590001388 4653 0 1088 233920 127844352
25	390050616 96996 19215465 19947460 177.2610001388 207.3550001388 3340 0 544 36992 20123648
25	405519990 36743 19947794 20291327 207.3750001388 228.0880001388 1267 0 0 0 0
vector 26 Highway5G.upf.pppIf.ppp transmissionState:vector ETV
attr interpolationmode sample-hold
attr recordingmode vector
attr source transmissionStateChanged
attr title "tx state"
26	933649 206491 0 673621 0 17.0480001388 8116 0 1 4058 4058
26	13383387 247687 673623 1343168 17.0480001988 25.8450002276 9344 0 1 4672 4672
26	26680459 251397 1343172 2082345 25.8450002876 33.5360001988 9311 0 1 4655 4655
26	40511963 258822 2082525 2839863 33.5380001388 40.1440001988 9586 0 1 4793 4793
26	54422057 269730 2839991 3545488 40.1450001388 45.0440003188 9990 0 1 4995 4995
26	68325822 263088 3545765 4288472 45.0460001388 49.8510002876 9744 0 1 4872 4872
26	82288320 270054 4288766 4999657 49.8530001388 54.2040001988 10002 0 1 5001 5001
26	96196949 270054 4999820 5708299 54.2050001388 58.2140003188 10002 0 1 5001 5001
26	110098505 268596 5708489 6456164 58.2150001388 62.4120003188 9948 0 1 4974 4974
26	124166313 276480 6456355 7168498 62.4130001388 66.2540003188 10240 0 1 5120 5120
26	138249972 272644 7168890 7889768 66.2560001388 70.2670002588 10098 0 1 5049 5049
26	152093262 253908 7890129 8616517 70.2690001388 74.5810003188 9404 0 1 4702 4702
26	166347805 277776 8617015 9315757 74.5840001388 78.4760001988 10288 0 1 5144 5144
26	180228016 269382 9315978 10057229 78.4770001388 83.1510001988 9946 0 1 4973 4973
26	194378029 286300 10057446 10749462 83.1520001388 87.2840001388 10225 0 1 5113 5113
26	208858120 274876 10749464 11417127 87.2840001988 91.3150001988 9817 0 1 4908 4908
26	223369296 278544 11417316 12120650 91.3160001388 95.8710002588 9948 0 1 4974 4974
26	238138136 279530 12120836 12855512 95.8720001388 101.0570001988 9916 0 1 4958 4958
26	252657689 293799 12855756 13557466 101.0590001388 106.0920002276 10131 0 1 5066 5066
26	267629134 281851 13557470 14258113 106.0920002876 111.3090003188 9719 0 1 4859 4859
26	282863025 262044 14258340 14962209 111.3110001388 117.4340001988 9036 0 1 4518 4518
26	297829697 276486 14962522 15670523 117.4370001388 123.9930001988 9534 0 1 4767 4767
26	313059212 279502 15670880 16380158 123.9970001388 131.1820001988 9638 0 1 4819 4819
26	328691287 268192 16380534 17121006 131.1870001388 140.4720002588 9248 0 1 4624 4624
26	343656821 261870 17121083 17831161 140.4730001388 150.7340001988 9030 0 1 4515 4515
26	359190156 247654 17831502 18516567 150.7390001388 161.9040001988 8540 0 1 4270 4270
26	373871218 245050 18516647 19215369 161.9050001388 177.2590001988 8450 0 1 4225 4225
26	390147612 189776 19215465 19947461 177.2610001388 207.3550001988 6544 0 1 3272 3272
26	405556733 73486 19947794 20291328 207.3750001388 228.0880001988 2534 0 1 1267 1267
vector 27 Highway5G.upf.udp passedUpPk:vector(count) ETV
attr interpolationmode none
attr recordingmode vector(count)
attr source packetSentToUpper
attr title "packets passed up, count"
27	1140140 114359 0 673618 0 17.0480001388 4060 0 4059 8239770 22299564210
27	13631074 137831 673702 1343166 17.0490001388 25.8450002276 4671 4060 8730 29871045 199518082695
27	26931856 143036 1343441 2082342 25.8480001388 33.5360001388 4655 8731 13385 51474990 577616214980
27	40770785 148583 2082521 2839860 33.5380001388 40.1440001388 4793 13386 18178 75643126 1202975552904
27	54691787 154845 2839987 3545472 40.1450001388 45.0440001388 4995 18179 23173 103276620 2145732842610
27	68588910 151032 3545763 4288466 45.0460001388 49.8510002276 4872 23174 28045 124769484 3204921071996
27	82558374 155031 4288762 4999654 49.8530001388 54.2040001388 5001 28046 33046 152760546 4676646555616
27	96467003 155031 4999818 5708288 54.2050001388 58.2140002276 5001 33047 38047 177770547 6329632551709
27	110367101 154194 5708485 6456148 58.2150001388 62.4120001388 4974 38048 43021 201618603 8182764273091
27	124442793 158720 6456349 7168487 62.4130001388 66.2540002276 5120 43022 48141 233377280 10648871298560
27	138522616 156518 7168886 7889759 66.2560001388 70.2670001388 5049 48142 53190 255812634 12971728841544
27	152347170 145762 7890125 8616506 70.2690001388 74.5810002276 4702 53191 57892 261156133 14513666326995
27	166625581 159464 8617013 9315754 74.5840001388 78.4760001388 5144 57893 63036 311029388 18817579265796
27	180497398 154583 9315972 10057226 78.4770001388 83.1510001388 4973 63037 68009 325845879 21360648355579
27	194664329 163616 10057440 10749460 83.1520001388 87.2840001388 5113 68010 73122 360803958 25471631097960
27	209132996 157055 10749467 11417124 87.2840002276 91.3150001388 4908 73123 78030 370929462 28043402666210
27	223647840 159168 11417312 12120641 91.3160001388 95.8710001388 4974 78031 83004 400494045 32257034278075
27	238417666 159597 12120834 12855509 95.8720001388 101.0570001388 4958 83005 87962 423827193 36240388217895
27	252951488 167178 12855752 13557464 101.0590001388 106.0920002276 5066 87963 93028 458450203 41498514980789
27	267910985 160347 13557598 14258097 106.0930001388 111.3090001388 4859 93029 97887 463830422 44285884457186
27	283125069 151500 14258338 14962206 111.3110001388 117.4340001388 4518 97888 102405 452461887 45320159606055
27	298106183 162078 14962518 15670520 117.4370001388 123.9930001388 4767 102406 107172 499529163 52354188685015
27	313338714 163846 15670878 16380155 123.9970001388 131.1820001388 4819 107173 111991 528075658 57876912628326
27	328959479 157216 16380532 17120997 131.1870001388 140.4720001388 4624 111992 116615 528539384 60422140435544
27	343918691 153510 17121081 17831158 140.4730001388 150.7340001388 4515 116616 121130 536711595 63808187372965
27	359437810 145211 17831500 18516645 150.7390001388 161.9050001388 4271 121131 125401 526469086 64902230787396
27	374116268 143616 18516652 19215366 161.9050002276 177.2590001388 4224 125402 129625 538617024 68687222335424
27	390337388 111248 19215463 19947458 177.2610001388 207.3550001388 3272 129626 132897 429487628 56378109447420
27	405630219 43078 19947792 20291325 207.3750001388 228.0880001388 1267 132898 134164 169183777 22591448418245
vector 28 Highway5G.upf.udp droppedPkWrongPort:vector(count) ETV
attr interpolationmode none
attr recordingmode vector(count)
attr source packetDropReasonIsNoPortFound(packetDropped)
attr title "packets dropped (wrong port), count"
28	1254499 9 0 0 0 0 1 0 0 0 0
vector 29 Highway5G.upf.udp droppedPkBadChecksum:vector(count) ETV
attr interpolationmode none
attr recordingmode vector(count)
attr source packetDropReasonIsIncorrectlyReceived(packetDropped)
attr title "packets dropped (checksum error), count"
29	1254508 9 0 0 0 0 1 0 0 0 0
vector 30 Highway5G.gNodeB1.pppIf.queue queueLength:vector ETV
attr autoWarmupFilter false
attr interpolationmode sample-hold
attr recordingmode vector
attr source "warmup(atomic(constant0(packetPushEnded) + count(packetPushStarted) - count(packetPulled) - count(packetRemoved) - count(packetDropped)))"
attr title "queue length"
attr unit pk
30	1254517 16697 0 673396 0 17.045 909 0 1 2 2
30	13768905 18650 673681 1342764 17.049 25.841 966 0 0 0 0
30	27074892 16954 1344037 2081932 25.855 33.532 843 0 1 23 23
30	40919368 21617 2082485 2839816 33.538 40.144 1077 0 2 39 43
30	54846632 26534 2841582 3545096 40.158 45.042 1275 0 2 172 188
30	68739942 18120 3546307 4288143 45.05 49.849 885 0 1 64 64
30	82713405 16153 4289751 4999257 49.86 54.202 807 0 1 6 6
30	96622034 11247 5000894 5707783 54.212 58.212 567 0 1 1 1
30	110521295 11139 5711604 6456063 58.232 62.412 557 0 0 0 0
30	124601513 13222 6456289 7167805 62.413 66.251 660 0 1 5 5
30	138679134 12809 7169058 7888687 66.257 70.261 638 0 1 7 7
30	152492932 5309 7891154 8614304 70.275 74.57 266 0 1 2 2
30	166785045 6273 8618053 9314986 74.59 78.472 317 0 0 0 0
30	180651981 1390 9318591 10032295 78.492 83.003 69 0 0 0 0
30	194827945 1074 10173537 10348823 83.86 84.886 52 0 0 0 0
30	209290051 2444 10754038 11414687 87.311 91.3 116 0 4 16 44
30	223807008 8325 11417926 12119038 91.32 95.8600000888 398 0 1 38 38
30	238577263 8267 12122114 12853620 95.88 101.044 374 0 1 80 80
30	253118666 5044 12856403 13556298 101.064 106.0840000888 228 0 1 4 4
30	268071332 7866 13559078 14257868 106.104 111.308 354 0 1 13 13
30	283276569 8056 14260557 14961442 111.328 117.427 358 0 1 26 26
30	298268261 2134 14963512 15670063 117.447 123.99 98 0 0 0 0
30	313502560 6360 15672387 16379225 124.01 131.172 290 0 0 0 0
30	329116695 2156 16380952 16861089 131.192 137.008 98 0 0 0 0
vector 31 Highway5G.gNodeB1.pppIf.queue queueBitLength:vector ETV
attr autoWarmupFilter false
attr interpolationmode sample-hold
attr recordingmode vector
attr source "warmup(atomic(constant0(packetPushEnded) + sum(packetLength(packetPushStarted)) - sum(packetLength(packetPulled)) - sum(packetLength(packetRemoved)) - sum(packetLength(packetDropped))))"
attr title "queue bit length"
attr unit b
31	1271214 16701 0 673396 0 17.045 909 0 832 1664 1384448
31	13787555 18650 673681 1342764 17.049 25.841 966 0 0 0 0
31	27091846 17000 1344037 2081932 25.855 33.532 843 0 832 19136 15921152
31	40940985 21693 2082485 2839816 33.538 40.144 1077 0 1664 32448 29765632
31	54873166 26870 2841582 3545096 40.158 45.042 1275 0 1664 143104 130138112
31	68758062 18248 3546307 4288143 45.05 49.849 885 0 832 53248 44302336
31	82729558 16165 4289751 4999257 49.86 54.202 807 0 832 4992 4153344
31	96633281 11249 5000894 5707783 54.212 58.212 567 0 832 832 692224
31	110532434 11139 5711604 6456063 58.232 62.412 557 0 0 0 0
31	124614735 13232 6456289 7167805 62.413 66.251 660 0 832 4160 3461120
31	138691943 12823 7169058 7888687 66.257 70.261 638 0 832 5824 4845568
31	152498241 5313 7891154 8614304 70.275 74.57 266 0 832 1664 1384448
31	166791318 6273 8618053 9314986 74.59 78.472 317 0 0 0 0
31	180653371 1390 9318591 10032295 78.492 83.003 69 0 0 0 0
31	194829019 1074 10173537 10348823 83.86 84.886 52 0 0 0 0
31	209292495 2463 10754038 11414687 87.311 91.3 116 0 3328 13312 30457856
31	223815333 8401 11417926 12119038 91.32 95.8600000888 398 0 832 31616 26304512
31	238585530 8427 12122114 12853620 95.88 101.044 374 0 832 66560 55377920
31	253123710 5052 12856403 13556298 101.064 106.0840000888 228 0 832 3328 2768896
31	268079198 7892 13559078 14257868 106.104 111.308 354 0 832 10816 8998912
31	283284625 8108 14260557 14961442 111.328 117.427 358 0 832 21632 17997824
31	298270395 2134 14963512 15670063 117.447 123.99 98 0 0 0 0
31	313508920 6360 15672387 16379225 124.01 131.172 290 0 0 0 0
31	329118851 2156 16380952 16861089 131.192 137.008 98 0 0 0 0
vector 32 Highway5G.gNodeB1.pppIf.ppp transmissionState:vector ETV
attr interpolationmode sample-hold
attr recordingmode vector
attr source transmissionStateChanged
attr title "tx state"
32	1287915 39547 0 673413 0 17.0450000888 1805 0 1 902 902
32	13806205 44185 673681 1342782 17.049 25.8410000888 1932 0 1 966 966
32	27108846 38654 1344037 2082485 25.855 33.538 1641 0 1 821 821
32	40962678 49032 2082515 2839857 33.5380000888 40.1440000888 2083 0 1 1041 1041
32	54900036 53627 2841582 3545140 40.158 45.0420000888 2238 0 1 1119 1119
32	68776310 39007 3546307 4288159 45.05 49.8490000888 1642 0 1 821 821
32	82745723 37661 4289751 4999318 49.86 54.2020000888 1602 0 1 801 801
32	96644530 26510 5000894 5707863 54.212 58.2120000888 1132 0 1 566 566
32	110543573 26178 5711604 6456137 58.232 62.4120000888 1114 0 1 557 557
32	124627967 30807 6456289 7167860 62.413 66.2510000888 1310 0 1 655 655
32	138704766 29706 7169058 7888708 66.257 70.2610000888 1262 0 1 631 631
32	152503554 12397 7891154 8614390 70.275 74.5700000888 528 0 1 264 264
32	166797591 14832 8618053 9315054 74.59 78.4720000888 634 0 1 317 317
32	180654761 3263 9318591 10032336 78.492 83.0030000888 138 0 1 69 69
32	194830093 2530 10173537 10348891 83.86 84.8860000888 104 0 1 52 52
32	209294958 5499 10754038 11414738 87.311 91.3000000888 224 0 1 112 112
32	223823734 17652 11417926 12119050 91.32 95.8600001776 720 0 1 360 360
32	238593957 14988 12122114 12853671 95.88 101.0440000888 588 0 1 294 294
32	253128762 11452 12856403 13556304 101.064 106.0840001776 448 0 1 224 224
32	268087090 17469 13559078 14257920 106.104 111.3080000888 682 0 1 341 341
32	283292733 17113 14260557 14961458 111.328 117.4270000888 664 0 1 332 332
32	298272529 4976 14963512 15670109 117.447 123.9900000888 196 0 1 98 98
32	313515280 14770 15672387 16379261 124.01 131.1720000888 580 0 1 290 290
32	329121007 4998 16380952 16861121 131.192 137.0080000888 196 0 1 98 98
vector 33 Highway5G.gNodeB1.x2ppp[0].queue queueLength:vector ETV
attr autoWarmupFilter false
attr interpolationmode sample-hold
attr recordingmode vector
attr source "warmup(atomic(constant0(packetPushEnded) + count(packetPushStarted) - count(packetPulled) - count(packetRemoved) - count(packetDropped)))"
attr title "queue length"
attr unit pk
33	1327462 122 0 297 0 0.0000004836 9 0 0 0 0
33	13850390 80 869486 1113810 20.0500101068 23.2500101068 3 0 0 0 0
33	27147500 27 1860157 1860157 31.2500101068 31.2500101068 1 0 0 0 0
33	41011710 49 2135229 2152386 34.05001 34.2000101068 2 0 0 0 0
33	54953663 27 3275599 3275599 43.2500101068 43.2500101068 1 0 0 0 0
33	68815317 98 3853713 4200368 47.00001 49.2500101068 4 0 0 0 0
33	82783384 169 4473236 4803567 51.05001 53.0500101636 7 0 0 0 0
33	96671040 147 5147850 5530655 55.05001 57.2500101068 6 0 0 0 0
33	110569751 108 5898759 6381103 59.2500101068 62.0000101636 4 0 0 0 0
33	124658774 27 7157810 7157810 66.2000101068 66.2000101068 1 0 0 0 0
33	138734472 27 7524480 7524480 68.2500101068 68.2500101068 1 0 0 0 0
33	152515951 223 8018245 8547214 71.00001 74.2000101068 9 0 0 0 0
33	166812423 49 9231893 9275490 78.00001 78.2500101068 2 0 0 0 0
33	209300457 255 11031057 11372004 89.05001 91.0500100568 10 0 1 2 2
33	238608945 57 12472255 12739595 98.2000101068 100.2000101068 2 0 0 0 0
33	268104559 29 13971520 13971520 109.2500101068 109.2500101068 1 0 0 0 0
33	283309846 265 14474459 14923321 113.05001 117.0500101636 10 0 1 1 1
33	298277505 135 15131056 15588923 119.05001 123.2000101068 5 0 0 0 0
33	313530050 29 15889053 15889053 126.2000101068 126.2000101068 1 0 0 0 0
33	329126005 82 16727611 16879401 135.2500101068 137.2500101068 3 0 0 0 0
33	344072201 29 17595493 17595493 147.2000101068 147.2000101068 1 0 0 0 0
33	374259884 29 18642048 18642048 164.2500101068 164.2500101068 1 0 0 0 0
vector 34 Highway5G.gNodeB1.x2ppp[0].queue queueBitLength:vector ETV
attr autoWarmupFilter false
attr interpolationmode sample-hold
attr recordingmode vector
attr source "warmup(atomic(constant0(packetPushEnded) + sum(packetLength(packetPushStarted)) - sum(packetLength(packetPulled)) - sum(packetLength(packetRemoved)) - sum(packetLength(packetDropped))))"
attr title "queue bit length"
attr unit b
34	1327584 122 0 297 0 0.0000004836 9 0 0 0 0
34	13850470 80 869486 1113810 20.0500101068 23.2500101068 3 0 0 0 0
34	27147527 27 1860157 1860157 31.2500101068 31.2500101068 1 0 0 0 0
34	41011759 49 2135229 2152386 34.05001 34.2000101068 2 0 0 0 0
34	54953690 27 3275599 3275599 43.2500101068 43.2500101068 1 0 0 0 0
34	68815415 98 3853713 4200368 47.00001 49.2500101068 4 0 0 0 0
34	82783553 169 4473236 4803567 51.05001 53.0500101636 7 0 0 0 0
34	96671187 147 5147850 5530655 55.05001 57.2500101068 6 0 0 0 0
34	110569859 108 5898759 6381103 59.2500101068 62.0000101636 4 0 0 0 0
34	124658801 27 7157810 7157810 66.2000101068 66.2000101068 1 0 0 0 0
34	138734499 27 7524480 7524480 68.2500101068 68.2500101068 1 0 0 0 0
34	152516174 223 8018245 8547214 71.00001 74.2000101068 9 0 0 0 0
34	166812472 49 9231893 9275490 78.00001 78.2500101068 2 0 0 0 0
34	209300712 259 11031057 11372004 89.05001 91.0500100568 10 0 512 1024 524288
34	238609002 57 12472255 12739595 98.2000101068 100.2000101068 2 0 0 0 0
34	268104588 29 13971520 13971520 109.2500101068 109.2500101068 1 0 0 0 0
34	283310111 267 14474459 14923321 113.05001 117.0500101636 10 0 512 512 262144
34	298277640 135 15131056 15588923 119.05001 123.2000101068 5 0 0 0 0
34	313530079 29 15889053 15889053 126.2000101068 126.2000101068 1 0 0 0 0
34	329126087 82 16727611 16879401 135.2500101068 137.2500101068 3 0 0 0 0
34	344072230 29 17595493 17595493 147.2000101068 147.2000101068 1 0 0 0 0
34	374259913 29 18642048 18642048 164.2500101068 164.2500101068 1 0 0 0 0
vector 35 Highway5G.gNodeB1.x2ppp[0].ppp transmissionState:vector ETV
attr interpolationmode sample-hold
attr recordingmode vector
attr source transmissionStateChanged
attr title "tx state"
35	1327706 173 0 318 0 0.000000518 9 0 1 4 4
35	13850550 160 869486 1113811 20.0500101068 23.2500101508 6 0 1 3 3
35	27147554 54 1860157 1860159 31.2500101068 31.2500101508 2 0 1 1 1
35	41011808 103 2135229 2152387 34.05001 34.2000101508 4 0 1 2 2
35	54953717 54 3275599 3275600 43.2500101068 43.2500101508 2 0 1 1 1
35	68815513 206 3853713 4200369 47.00001 49.2500101508 8 0 1 4 4
35	82783722 358 4473236 4803571 51.05001 53.0500102076 14 0 1 7 7
35	96671334 309 5147850 5530656 55.05001 57.2500101508 12 0 1 6 6
35	110569967 216 5898759 6381107 59.2500101068 62.0000102076 8 0 1 4 4
35	124658828 54 7157810 7157811 66.2000101068 66.2000101508 2 0 1 1 1
35	138734526 54 7524480 7524481 68.2500101068 68.2500101508 2 0 1 1 1
35	152516397 466 8018245 8547216 71.00001 74.2000101508 18 0 1 9 9
35	166812521 103 9231893 9275491 78.00001 78.2500101508 4 0 1 2 2
35	209300971 433 11031057 11372013 89.05001 91.0500101136 16 0 1 8 8
35	238609059 114 12472255 12739596 98.2000101068 100.2000101508 4 0 1 2 2
35	268104617 58 13971520 13971522 109.2500101068 109.2500101508 2 0 1 1 1
35	283310378 502 14474459 14923325 113.05001 117.0500102076 18 0 1 9 9
35	298277775 280 15131056 15588924 119.05001 123.2000101508 10 0 1 5 5
35	313530108 58 15889053 15889055 126.2000101068 126.2000101508 2 0 1 1 1
35	329126169 169 16727611 16879402 135.2500101068 137.2500101508 6 0 1 3 3
35	344072259 58 17595493 17595494 147.2000101068 147.2000101508 2 0 1 1 1
35	374259942 58 18642048 18642049 164.2500101068 164.2500101508 2 0 1 1 1
vector 36 Highway5G.gNodeB1.x2ppp[1].queue queueLength:vector ETV
attr autoWarmupFilter false
attr interpolationmode sample-hold
attr recordingmode vector
attr source "warmup(atomic(constant0(packetPushEnded) + count(packetPushStarted) - count(packetPulled) - count(packetRemoved) - count(packetDropped)))"
attr title "queue length"
attr unit pk
36	1327879 122 0 301 0 0.0000004836 9 0 0 0 0
36	13850710 80 866379 1109570 20.0000101068 23.2000101068 3 0 0 0 0
36	27147608 27 1855180 1855180 31.2000101068 31.2000101068 1 0 0 0 0
36	54953771 27 3268122 3268122 43.2000101068 43.2000101068 1 0 0 0 0
36	82784080 27 4830310 4830310 53.2000101068 53.2000101068 1 0 0 0 0
36	110570183 108 5890442 6389895 59.2000101068 62.0500101636 4 0 0 0 0
36	124658882 27 7167670 7167670 66.2500101068 66.2500101068 1 0 0 0 0
36	138734580 27 7515308 7515308 68.2000101068 68.2000101068 1 0 0 0 0
36	152516863 27 8355444 8355444 73.0500101068 73.0500101068 1 0 0 0 0
36	238609173 57 12479497 12746154 98.2500101068 100.2500101068 2 0 0 0 0
36	268104675 29 13964876 13964876 109.2000101068 109.2000101068 1 0 0 0 0
36	283310880 29 14612599 14612599 114.2000101068 114.2000101068 1 0 0 0 0
36	298278055 29 15594157 15594157 123.2500101068 123.2500101068 1 0 0 0 0
36	313530166 29 15893533 15893533 126.2500101068 126.2500101068 1 0 0 0 0
36	329126338 29 16723483 16723483 135.2000101068 135.2000101068 1 0 0 0 0
36	344072317 29 17598745 17598745 147.2500101068 147.2500101068 1 0 0 0 0
36	374260000 29 18639461 18639461 164.2000101068 164.2000101068 1 0 0 0 0
vector 37 Highway5G.gNodeB1.x2ppp[1].queue queueBitLength:vector ETV
attr autoWarmupFilter false
attr interpolationmode sample-hold
attr recordingmode vector
attr source "warmup(atomic(constant0(packetPushEnded) + sum(packetLength(packetPushStarted)) - sum(packetLength(packetPulled)) - sum(packetLength(packetRemoved)) - sum(packetLength(packetDropped))))"
attr title "queue bit length"
attr unit b
37	1328001 122 0 301 0 0.0000004836 9 0 0 0 0
37	13850790 80 866379 1109570 20.0000101068 23.2000101068 3 0 0 0 0
37	27147635 27 1855180 1855180 31.2000101068 31.2000101068 1 0 0 0 0
37	54953798 27 3268122 3268122 43.2000101068 43.2000101068 1 0 0 0 0
37	82784107 27 4830310 4830310 53.2000101068 53.2000101068 1 0 0 0 0
37	110570291 108 5890442 6389895 59.2000101068 62.0500101636 4 0 0 0 0
37	124658909 27 7167670 7167670 66.2500101068 66.2500101068 1 0 0 0 0
37	138734607 27 7515308 7515308 68.2000101068 68.2000101068 1 0 0 0 0
37	152516890 27 8355444 8355444 73.0500101068 73.0500101068 1 0 0 0 0
37	238609230 57 12479497 12746154 98.2500101068 100.2500101068 2 0 0 0 0
37	268104704 29 13964876 13964876 109.2000101068 109.2000101068 1 0 0 0 0
37	283310909 29 14612599 14612599 114.2000101068 114.2000101068 1 0 0 0 0
37	298278084 29 15594157 15594157 123.2500101068 123.2500101068 1 0 0 0 0
37	313530195 29 15893533 15893533 126.2500101068 126.2500101068 1 0 0 0 0
37	329126367 29 16723483 16723483 135.2000101068 135.2000101068 1 0 0 0 0
37	344072346 29 17598745 17598745 147.2500101068 147.2500101068 1 0 0 0 0
37	374260029 29 18639461 18639461 164.2000101068 164.2000101068 1 0 0 0 0
vector 38 Highway5G.gNodeB1.x2ppp[1].ppp transmissionState:vector ETV
attr interpolationmode sample-hold
attr recordingmode vector
attr source transmissionStateChanged
attr title "tx state"
38	1328123 173 0 320 0 0.000000518 9 0 1 4 4
38	13850870 160 866379 1109571 20.0000101068 23.2000101508 6 0 1 3 3
38	27147662 54 1855180 1855182 31.2000101068 31.2000101508 2 0 1 1 1
38	54953825 54 3268122 3268123 43.2000101068 43.2000101508 2 0 1 1 1
38	82784134 54 4830310 4830312 53.2000101068 53.2000101508 2 0 1 1 1
38	110570399 216 5890442 6389899 59.2000101068 62.0500102076 8 0 1 4 4
38	124658936 54 7167670 7167671 66.2500101068 66.2500101508 2 0 1 1 1
38	138734634 54 7515308 7515309 68.2000101068 68.2000101508 2 0 1 1 1
38	152516917 54 8355444 8355453 73.0500101068 73.0500101508 2 0 1 1 1
38	238609287 114 12479497 12746155 98.2500101068 100.2500101508 4 0 1 2 2
38	268104733 58 13964876 13964878 109.2000101068 109.2000101508 2 0 1 1 1
38	283310938 58 14612599 14612601 114.2000101068 114.2000101508 2 0 1 1 1
38	298278113 58 15594157 15594158 123.2500101068 123.2500101508 2 0 1 1 1
38	313530224 58 15893533 15893535 126.2500101068 126.2500101508 2 0 1 1 1
38	329126396 58 16723483 16723484 135.2000101068 135.2000101508 2 0 1 1 1
38	344072375 58 17598745 17598746 147.2500101068 147.2500101508 2 0 1 1 1
38	374260058 58 18639461 18639462 164.2000101068 164.2000101508 2 0 1 1 1
vector 39 Highway5G.gNodeB1.pppMEHostIf.queue queueLength:vector ETV
attr autoWarmupFilter false
attr interpolationmode sample-hold
attr recordingmode vector
attr source "warmup(atomic(constant0(packetPushEnded) + count(packetPushStarted) - count(packetPulled) - count(packetRemoved) - count(packetDropped)))"
attr title "queue length"
attr unit pk
39	1328296 45 0 0 0 0 5 0 0 0 0
vector 40 Highway5G.gNodeB1.pppMEHostIf.queue queueBitLength:vector ETV
attr autoWarmupFilter false
attr interpolationmode sample-hold
attr recordingmode vector
attr source "warmup(atomic(constant0(packetPushEnded) + sum(packetLength(packetPushStarted)) - sum(packetLength(packetPulled)) - sum(packetLength(packetRemoved)) - sum(packetLength(packetDropped))))"
attr title "queue bit length"
attr unit b
40	1328341 45 0 0 0 0 5 0 0 0 0
vector 41 Highway5G.gNodeB1.pppMEHostIf.ppp transmissionState:vector ETV
attr interpolationmode sample-hold
attr recordingmode vector
attr source transmissionStateChanged
attr title "tx state"
41	1328386 9 0 0 0 0 1 0 0 0 0
vector 42 Highway5G.gNodeB1.udp passedUpPk:vector(count) ETV
attr interpolationmode none
attr recordingmode vector(count)
attr source packetSentToUpper
attr title "packets passed up, count"
42	1328395 9 0 0 0 0 1 0 0 0 0
vector 43 Highway5G.gNodeB1.udp droppedPkWrongPort:vector(count) ETV
attr interpolationmode none
attr recordingmode vector(count)
attr source packetDropReasonIsNoPortFound(packetDropped)
attr title "packets dropped (wrong port), count"
43	1328404 9 0 0 0 0 1 0 0 0 0
vector 44 Highway5G.gNodeB1.udp droppedPkBadChecksum:vector(count) ETV
attr interpolationmode none
attr recordingmode vector(count)
attr source packetDropReasonIsIncorrectlyReceived(packetDropped)
attr title "packets dropped (checksum error), count"
44	1328413 9 0 0 0 0 1 0 0 0 0
vector 45 Highway5G.gNodeB2.pppIf.queue queueLength:vector ETV
attr autoWarmupFilter false
attr interpolationmode sample-hold
attr recordingmode vector
attr source "warmup(atomic(constant0(packetPushEnded) + count(packetPushStarted) - count(packetPulled) - count(packetRemoved) - count(packetDropped)))"
attr title "queue length"
attr unit pk
45	1328422 35335 0 673580 0 17.048 1889 0 2 212 294
45	13851030 29142 674240 1343156 17.058 25.8450000888 1460 0 2 96 98
45	27147716 48636 1343401 2082312 25.848 33.536 2343 0 2 338 404
45	41011911 28897 2082496 2837788 33.538 40.128 1410 0 2 143 179
45	54953879 28554 2839950 3545396 40.145 45.044 1343 0 2 284 326
45	68815719 30688 3546488 4288730 45.051 49.853 1462 0 1 214 214
45	82784188 22170 4289282 4999607 49.857 54.204 1083 0 2 81 83
45	96671643 34905 5000387 5708272 54.209 58.2140000888 1706 0 2 171 205
45	110570615 44684 5708436 6456075 58.215 62.412 2141 0 2 281 285
45	124658990 49120 6456301 7167816 62.413 66.251 2326 0 2 532 690
45	138734688 50889 7168806 7889509 66.256 70.266 2394 0 3 627 815
45	152516971 47914 7890267 8616490 70.27 74.5810000888 2290 0 2 358 372
45	166812624 47619 8617143 9315897 74.585 78.477 2300 0 2 307 339
45	180658024 42012 9316353 10057353 78.479 83.152 1998 0 2 311 345
45	194832623 54796 10057431 10749245 83.1520000888 87.283 2483 0 2 465 537
45	209301404 53290 10749742 11417243 87.286 91.316 2404 0 2 414 418
45	223841386 35014 11417306 12120594 91.3160000888 95.871 1628 0 1 138 138
45	238609401 46286 12121101 12855718 95.874 101.059 2102 0 2 258 260
45	253140214 29877 12857447 13557274 101.071 106.091 1323 0 1 117 117
45	268104791 42606 13558071 14258321 106.097 111.311 1845 0 1 289 289
45	283310996 31347 14258335 14962054 111.3110000888 117.433 1386 0 2 216 304
45	298278171 44672 14962708 15670357 117.439 123.9920000888 1997 0 1 171 171
45	313530282 30058 15671142 16380017 124 131.181 1362 0 1 17 17
45	329126454 31822 16381280 17121065 131.196 140.473 1430 0 1 58 58
45	344072433 36683 17121914 17831132 140.485 150.734 1652 0 1 69 69
45	359583021 28372 17831760 18516642 150.743 161.9050000888 1289 0 2 28 30
45	374260116 38634 18516914 19214650 161.91 177.2410000888 1754 0 2 25 27
45	390448636 12710 19215452 19624753 177.261 190.086 565 0 1 40 40
vector 46 Highway5G.gNodeB2.pppIf.queue queueBitLength:vector ETV
attr autoWarmupFilter false
attr interpolationmode sample-hold
attr recordingmode vector
attr source "warmup(atomic(constant0(packetPushEnded) + sum(packetLength(packetPushStarted)) - sum(packetLength(packetPulled)) - sum(packetLength(packetRemoved)) - sum(packetLength(packetDropped))))"
attr title "queue bit length"
attr unit b
46	1363757 35718 0 673580 0 17.048 1889 0 1664 176384 203513856
46	13880172 29333 674240 1343156 17.058 25.8450000888 1460 0 1664 79872 67837952
46	27196352 49279 1343401 2082312 25.848 33.536 2343 0 1664 281216 279658496
46	41040808 29165 2082496 2837788 33.538 40.128 1410 0 1664 118976 123908096
46	54982433 29101 2839950 3545396 40.145 45.044 1343 0 1664 236288 225665024
46	68846407 31116 3546488 4288730 45.051 49.853 1462 0 832 178048 148135936
46	82806358 22331 4289282 4999607 49.857 54.204 1083 0 1664 67392 57454592
46	96706548 35230 5000387 5708272 54.209 58.2140000888 1706 0 1664 142272 141905920
46	110615299 45244 5708436 6456075 58.215 62.412 2141 0 1664 233792 197283840
46	124708110 50105 6456301 7167816 62.413 66.251 2326 0 1664 442624 477634560
46	138785577 52049 7168806 7889509 66.256 70.266 2394 0 2496 521664 564162560
46	152564885 48623 7890267 8616490 70.27 74.5810000888 2290 0 1664 297856 257507328
46	166860243 48217 8617143 9315897 74.585 78.477 2300 0 1664 255424 234663936
46	180700036 42617 9316353 10057353 78.479 83.152 1998 0 1664 258752 238817280
46	194887419 55690 10057431 10749245 83.1520000888 87.283 2483 0 1664 386880 371724288
46	209354694 54116 10749742 11417243 87.286 91.316 2404 0 1664 344448 289349632
46	223876400 35290 11417306 12120594 91.3160000888 95.871 1628 0 832 114816 95526912
46	238655687 46801 12121101 12855718 95.874 101.059 2102 0 1664 214656 179978240
46	253170091 30111 12857447 13557274 101.071 106.091 1323 0 832 97344 80990208
46	268147397 43184 13558071 14258321 106.097 111.311 1845 0 832 240448 200052736
46	283342343 31735 14258335 14962054 111.3110000888 117.433 1386 0 1664 179712 210436096
46	298322843 45014 14962708 15670357 117.439 123.9920000888 1997 0 832 142272 118370304
46	313560340 30092 15671142 16380017 124 131.181 1362 0 832 14144 11767808
46	329158276 31938 16381280 17121065 131.196 140.473 1430 0 832 48256 40148992
46	344109116 36821 17121914 17831132 140.485 150.734 1652 0 832 57408 47763456
46	359611393 28427 17831760 18516642 150.743 161.9050000888 1289 0 1664 23296 20766720
46	374298750 38683 18516914 19214650 161.91 177.2410000888 1754 0 1664 20800 18690048
46	390461346 12790 19215452 19624753 177.261 190.086 565 0 832 33280 27688960
vector 47 Highway5G.gNodeB2.pppIf.ppp transmissionState:vector ETV
attr interpolationmode sample-hold
attr recordingmode vector
attr source transmissionStateChanged
attr title "tx state"
47	1399475 77321 0 673611 0 17.0480000888 3509 0 1 1754 1754
47	13909505 63616 674240 1343162 17.058 25.8450001776 2732 0 1 1366 1366
47	27245631 99139 1343401 2082339 25.848 33.5360000888 4142 0 1 2071 2071
47	41069973 61938 2082496 2837821 33.538 40.1280000888 2606 0 1 1303 1303
47	55011534 53441 2839950 3545461 40.145 45.0440000888 2202 0 1 1101 1101
47	68877523 60078 3546488 4288730 45.051 49.853 2495 0 1 1248 1248
47	82828689 47741 4288756 4999651 49.8530000888 54.2040000888 2009 0 1 1004 1004
47	96741778 74529 5000387 5708284 54.209 58.2140001776 3138 0 1 1569 1569
47	110660543 89474 5708436 6456138 58.215 62.4120000888 3728 0 1 1864 1864
47	124758215 94344 6456301 7167861 62.413 66.2510000888 3904 0 1 1952 1952
47	138837626 94706 7168806 7889569 66.256 70.2660000888 3902 0 1 1951 1951
47	152613508 93655 7890267 8616502 70.27 74.5810001776 3892 0 1 1946 1946
47	166908460 96824 8617143 9315963 74.585 78.4770000888 4050 0 1 2025 2025
47	180742653 83014 9316353 10057352 78.479 83.152 3441 0 1 1721 1721
47	194943109 105091 10057431 10749279 83.1520000888 87.2830000888 4181 0 1 2090 2090
47	209408810 100485 10749742 11417242 87.286 91.316 3987 0 1 1994 1994
47	223911690 73907 11417306 12120634 91.3160000888 95.8710000888 2981 0 1 1490 1490
47	238702488 92818 12121101 12855718 95.874 101.059 3691 0 1 1846 1846
47	253200202 62306 12855746 13557298 101.0590000888 106.0910000888 2413 0 1 1206 1206
47	268190581 81343 13558071 14258320 106.097 111.311 3111 0 1 1556 1556
47	283374078 65042 14258335 14962072 111.3110000888 117.4330000888 2517 0 1 1258 1258
47	298367857 93864 14962708 15670369 117.439 123.9920001776 3652 0 1 1826 1826
47	313590432 68689 15671142 16380037 124 131.1810000888 2690 0 1 1345 1345
47	329190214 70335 16381280 17121078 131.196 140.4730000888 2744 0 1 1372 1372
47	344145937 81072 17121914 17831155 140.485 150.7340000888 3166 0 1 1583 1583
47	359639820 64420 17831760 18516642 150.743 161.9050000888 2525 0 1 1263 1263
47	374337433 88356 18516648 19214656 161.9050001776 177.2410001776 3463 0 1 1731 1731
47	390474136 27055 19215452 19624766 177.261 190.0860000888 1050 0 1 525 525
vector 48 Highway5G.gNodeB2.x2ppp[0].queue queueLength:vector ETV
attr autoWarmupFilter false
attr interpolationmode sample-hold
attr recordingmode vector
attr source "warmup(atomic(constant0(packetPushEnded) + count(packetPushStarted) - count(packetPulled) - count(packetRemoved) - count(packetDropped)))"
attr title "queue length"
attr unit pk
48	1476796 122 0 293 0 0.0000004836 9 0 0 0 0
48	13973121 65 869470 1097540 20.05001 23.05001 3 0 0 0 0
48	27344770 22 1839953 1839953 31.05001 31.05001 1 0 0 0 0
48	41131911 49 2129932 2135238 34.00001 34.0500101068 2 0 0 0 0
48	55064975 22 3246471 3246471 43.05001 43.05001 1 0 0 0 0
48	68937601 98 3860908 4192475 47.05001 49.2000101068 4 0 0 0 0
48	82876430 218 4465415 4830311 51.00001 53.2000101068 9 0 1 1 1
48	96816307 147 5139379 5521182 55.00001 57.2000101068 6 0 0 0 0
48	110750017 186 5863933 6381087 59.05001 62.0000100568 8 0 1 2 2
48	124852559 22 7119711 7119711 66.00001 66.00001 1 0 0 0 0
48	138932332 22 7488369 7488369 68.05001 68.05001 1 0 0 0 0
48	152707163 267 8026922 8556040 71.05001 74.2500101068 11 0 1 1 1
48	167005284 49 9240449 9266616 78.05001 78.2000101068 2 0 0 0 0
48	209509295 255 11022997 11372020 89.00001 91.0500101636 10 0 1 2 2
48	238795306 47 12442084 12713710 98.00001 100.00001 2 0 0 0 0
48	268271924 24 13944955 13944955 109.05001 109.05001 1 0 0 0 0
48	283439120 318 14467907 14923305 113.00001 117.0500100568 12 0 1 2 2
48	298461721 130 15125806 15567638 119.00001 123.00001 5 0 0 0 0
48	313659121 24 15871249 15871249 126.00001 126.00001 1 0 0 0 0
48	329260549 77 16710928 16875745 135.05001 137.2000101068 3 0 0 0 0
48	344227009 24 17582617 17582617 147.00001 147.00001 1 0 0 0 0
48	374425789 24 18631680 18631680 164.05001 164.05001 1 0 0 0 0
vector 49 Highway5G.gNodeB2.x2ppp[0].queue queueBitLength:vector ETV
attr autoWarmupFilter false
attr interpolationmode sample-hold
attr recordingmode vector
attr source "warmup(atomic(constant0(packetPushEnded) + sum(packetLength(packetPushStarted)) - sum(packetLength(packetPulled)) - sum(packetLength(packetRemoved)) - sum(packetLength(packetDropped))))"
attr title "queue bit length"
attr unit b
49	1476918 122 0 293 0 0.0000004836 9 0 0 0 0
49	13973186 65 869470 1097540 20.05001 23.05001 3 0 0 0 0
49	27344792 22 1839953 1839953 31.05001 31.05001 1 0 0 0 0
49	41131960 49 2129932 2135238 34.00001 34.0500101068 2 0 0 0 0
49	55064997 22 3246471 3246471 43.05001 43.05001 1 0 0 0 0
49	68937699 98 3860908 4192475 47.05001 49.2000101068 4 0 0 0 0
49	82876648 220 4465415 4830311 51.00001 53.2000101068 9 0 512 512 262144
49	96816454 147 5139379 5521182 55.00001 57.2000101068 6 0 0 0 0
49	110750203 190 5863933 6381087 59.05001 62.0000100568 8 0 512 1024 524288
49	124852581 22 7119711 7119711 66.00001 66.00001 1 0 0 0 0
49	138932354 22 7488369 7488369 68.05001 68.05001 1 0 0 0 0
49	152707430 269 8026922 8556040 71.05001 74.2500101068 11 0 512 512 262144
49	167005333 49 9240449 9266616 78.05001 78.2000101068 2 0 0 0 0
49	209509550 259 11022997 11372020 89.00001 91.0500101636 10 0 512 1024 524288
49	238795353 47 12442084 12713710 98.00001 100.00001 2 0 0 0 0
49	268271948 24 13944955 13944955 109.05001 109.05001 1 0 0 0 0
49	283439438 322 14467907 14923305 113.00001 117.0500100568 12 0 512 1024 524288
49	298461851 130 15125806 15567638 119.00001 123.00001 5 0 0 0 0
49	313659145 24 15871249 15871249 126.00001 126.00001 1 0 0 0 0
49	329260626 77 16710928 16875745 135.05001 137.2000101068 3 0 0 0 0
49	344227033 24 17582617 17582617 147.00001 147.00001 1 0 0 0 0
49	374425813 24 18631680 18631680 164.05001 164.05001 1 0 0 0 0
vector 50 Highway5G.gNodeB2.x2ppp[0].ppp transmissionState:vector ETV
attr interpolationmode sample-hold
attr recordingmode vector
attr source transmissionStateChanged
attr title "tx state"
50	1477040 173 0 316 0 0.000000518 9 0 1 4 4
50	13973251 145 869470 1097542 20.05001 23.0500100568 6 0 1 3 3
50	27344814 49 1839953 1839957 31.05001 31.0500100568 2 0 1 1 1
50	41132009 103 2129932 2135242 34.00001 34.0500101508 4 0 1 2 2
50	55065019 49 3246471 3246473 43.05001 43.0500100568 2 0 1 1 1
50	68937797 206 3860908 4192476 47.05001 49.2000101508 8 0 1 4 4
50	82876868 412 4465415 4830313 51.00001 53.2000101508 16 0 1 8 8
50	96816601 309 5139379 5521183 55.00001 57.2000101508 12 0 1 6 6
50	110750393 304 5863933 6381096 59.05001 62.0000101136 12 0 1 6 6
50	124852603 49 7119711 7119712 66.00001 66.0000100568 2 0 1 1 1
50	138932376 49 7488369 7488371 68.05001 68.0500100568 2 0 1 1 1
50	152707699 515 8026922 8556042 71.05001 74.2500101508 20 0 1 10 10
50	167005382 103 9240449 9266617 78.05001 78.2000101508 4 0 1 2 2
50	209509809 433 11022997 11372024 89.00001 91.0500102076 16 0 1 8 8
50	238795400 104 12442084 12713711 98.00001 100.0000100568 4 0 1 2 2
50	268271972 53 13944955 13944959 109.05001 109.0500100568 2 0 1 1 1
50	283439760 560 14467907 14923314 113.00001 117.0500101136 20 0 1 10 10
50	298461981 275 15125806 15567639 119.00001 123.0000100568 10 0 1 5 5
50	313659169 53 15871249 15871251 126.00001 126.0000100568 2 0 1 1 1
50	329260703 164 16710928 16875746 135.05001 137.2000101508 6 0 1 3 3
50	344227057 53 17582617 17582618 147.00001 147.0000100568 2 0 1 1 1
50	374425837 53 18631680 18631682 164.05001 164.0500100568 2 0 1 1 1
vector 51 Highway5G.gNodeB2.x2ppp[1].queue queueLength:vector ETV
attr autoWarmupFilter false
attr interpolationmode sample-hold
attr recordingmode vector
attr source "warmup(atomic(constant0(packetPushEnded) + count(packetPushStarted) - count(packetPulled) - count(packetRemoved) - count(packetDropped)))"
attr title "queue length"
attr unit pk
51	1477213 181 0 549282 0 15.00001 12 0 0 0 0
51	13973396 127 798186 1263011 19.0000101068 25.00001 5 0 0 0 0
51	27344863 93 1445678 1834987 27.05001 31.00001 4 0 1 1 1
51	41132112 22 2357267 2357267 36.00001 36.00001 1 0 0 0 0
51	55065068 44 2950081 3390013 41.00001 44.00001 2 0 0 0 0
51	68938003 44 3707513 4002711 46.05001 48.00001 2 0 0 0 0
51	82877280 22 4310434 4310434 50.00001 50.00001 1 0 0 0 0
51	110750697 22 5863932 5863932 59.05001 59.05001 1 0 0 0 0
51	138932425 44 7314957 7662111 67.05001 69.00001 2 0 0 0 0
51	152708214 54 8052669 8547215 71.2000101068 74.2000101068 2 0 0 0 0
51	167005485 49 8924837 9055462 76.2500101068 77.00001 2 0 0 0 0
51	180825667 27 9586335 9586335 80.2000101068 80.2000101068 1 0 0 0 0
51	195048200 56 10074367 10568023 83.2500101068 86.2000101068 2 0 0 0 0
51	209510242 28 11223184 11223184 90.2000101068 90.2000101068 1 0 0 0 0
51	223985597 79 11559624 11714723 92.2000101068 93.2000101068 3 0 0 0 0
51	238795504 24 12847872 12847872 101.00001 101.00001 1 0 0 0 0
51	268272025 29 13964877 13964877 109.2000101068 109.2000101068 1 0 0 0 0
51	283440320 53 14467908 14843059 113.00001 116.2500101068 2 0 0 0 0
51	313659222 53 15889054 15966326 126.2000101068 127.00001 2 0 0 0 0
51	329260867 48 16457407 16534493 132.05001 133.00001 2 0 0 0 0
51	344227110 29 17266398 17266398 142.2500101068 142.2500101068 1 0 0 0 0
51	359704240 125 18308527 18467057 158.00001 161.00001 5 0 0 0 0
51	390501191 53 19288587 19945323 179.00001 207.2000101068 2 0 0 0 0
51	405673297 58 19963351 19979248 208.2500101068 209.2000101068 2 0 0 0 0
vector 52 Highway5G.gNodeB2.x2ppp[1].queue queueBitLength:vector ETV
attr autoWarmupFilter false
attr interpolationmode sample-hold
attr recordingmode vector
attr source "warmup(atomic(constant0(packetPushEnded) + sum(packetLength(packetPushStarted)) - sum(packetLength(packetPulled)) - sum(packetLength(packetRemoved)) - sum(packetLength(packetDropped))))"
attr title "queue bit length"
attr unit b
52	1477394 181 0 549282 0 15.00001 12 0 0 0 0
52	13973523 127 798186 1263011 19.0000101068 25.00001 5 0 0 0 0
52	27344956 95 1445678 1834987 27.05001 31.00001 4 0 512 512 262144
52	41132134 22 2357267 2357267 36.00001 36.00001 1 0 0 0 0
52	55065112 44 2950081 3390013 41.00001 44.00001 2 0 0 0 0
52	68938047 44 3707513 4002711 46.05001 48.00001 2 0 0 0 0
52	82877302 22 4310434 4310434 50.00001 50.00001 1 0 0 0 0
52	110750719 22 5863932 5863932 59.05001 59.05001 1 0 0 0 0
52	138932469 44 7314957 7662111 67.05001 69.00001 2 0 0 0 0
52	152708268 54 8052669 8547215 71.2000101068 74.2000101068 2 0 0 0 0
52	167005534 49 8924837 9055462 76.2500101068 77.00001 2 0 0 0 0
52	180825694 27 9586335 9586335 80.2000101068 80.2000101068 1 0 0 0 0
52	195048256 56 10074367 10568023 83.2500101068 86.2000101068 2 0 0 0 0
52	209510270 28 11223184 11223184 90.2000101068 90.2000101068 1 0 0 0 0
52	223985676 79 11559624 11714723 92.2000101068 93.2000101068 3 0 0 0 0
52	238795528 24 12847872 12847872 101.00001 101.00001 1 0 0 0 0
52	268272054 29 13964877 13964877 109.2000101068 109.2000101068 1 0 0 0 0
52	283440373 53 14467908 14843059 113.00001 116.2500101068 2 0 0 0 0
52	313659275 53 15889054 15966326 126.2000101068 127.00001 2 0 0 0 0
52	329260915 48 16457407 16534493 132.05001 133.00001 2 0 0 0 0
52	344227139 29 17266398 17266398 142.2500101068 142.2500101068 1 0 0 0 0
52	359704365 125 18308527 18467057 158.00001 161.00001 5 0 0 0 0
52	390501244 53 19288587 19945323 179.00001 207.2000101068 2 0 0 0 0
52	405673355 58 19963351 19979248 208.2500101068 209.2000101068 2 0 0 0 0
vector 53 Highway5G.gNodeB2.x2ppp[1].ppp transmissionState:vector ETV
attr interpolationmode sample-hold
attr recordingmode vector
attr source transmissionStateChanged
attr title "tx state"
53	1477575 306 0 549283 0 15.0000100568 15 0 1 7 7
53	13973650 259 798186 1263012 19.0000101068 25.0000100568 10 0 1 5 5
53	27345051 152 1445678 1834989 27.05001 31.0000100568 6 0 1 3 3
53	41132156 49 2357267 2357268 36.00001 36.0000100568 2 0 1 1 1
53	55065156 98 2950081 3390014 41.00001 44.0000100568 4 0 1 2 2
53	68938091 98 3707513 4002712 46.05001 48.0000100568 4 0 1 2 2
53	82877324 49 4310434 4310435 50.00001 50.0000100568 2 0 1 1 1
53	110750741 49 5863932 5863936 59.05001 59.0500100568 2 0 1 1 1
53	138932513 98 7314957 7662112 67.05001 69.0000100568 4 0 1 2 2
53	152708322 108 8052669 8547217 71.2000101068 74.2000101508 4 0 1 2 2
53	167005583 103 8924837 9055463 76.2500101068 77.0000100568 4 0 1 2 2
53	180825721 54 9586335 9586336 80.2000101068 80.2000101508 2 0 1 1 1
53	195048312 112 10074367 10568024 83.2500101068 86.2000101508 4 0 1 2 2
53	209510298 56 11223184 11223185 90.2000101068 90.2000101508 2 0 1 1 1
53	223985755 163 11559624 11714725 92.2000101068 93.2000101508 6 0 1 3 3
53	238795552 53 12847872 12847873 101.00001 101.0000100568 2 0 1 1 1
53	268272083 58 13964877 13964879 109.2000101068 109.2000101508 2 0 1 1 1
53	283440426 111 14467908 14843061 113.00001 116.2500101508 4 0 1 2 2
53	313659328 111 15889054 15966327 126.2000101068 127.0000100568 4 0 1 2 2
53	329260963 106 16457407 16534494 132.05001 133.0000100568 4 0 1 2 2
53	344227168 58 17266398 17266399 142.2500101068 142.2500101508 2 0 1 1 1
53	359704490 270 18308527 18467058 158.00001 161.0000100568 10 0 1 5 5
53	390501297 111 19288587 19945324 179.00001 207.2000101508 4 0 1 2 2
53	405673413 116 19963351 19979249 208.2500101068 209.2000101508 4 0 1 2 2
vector 54 Highway5G.gNodeB2.pppMEHostIf.queue queueLength:vector ETV
attr autoWarmupFilter false
attr interpolationmode sample-hold
attr recordingmode vector
attr source "warmup(atomic(constant0(packetPushEnded) + count(packetPushStarted) - count(packetPulled) - count(packetRemoved) - count(packetDropped)))"
attr title "queue length"
attr unit pk
54	1477881 45 0 0 0 0 5 0 0 0 0
vector 55 Highway5G.gNodeB2.pppMEHostIf.queue queueBitLength:vector ETV
attr autoWarmupFilter false
attr interpolationmode sample-hold
attr recordingmode vector
attr source "warmup(atomic(constant0(packetPushEnded) + sum(packetLength(packetPushStarted)) - sum(packetLength(packetPulled)) - sum(packetLength(packetRemoved)) - sum(packetLength(packetDropped))))"
attr title "queue bit length"
attr unit b
55	1477926 45 0 0 0 0 5 0 0 0 0
vector 56 Highway5G.gNodeB2.pppMEHostIf.ppp transmissionState:vector ETV
attr interpolationmode sample-hold
attr recordingmode vector
attr source transmissionStateChanged
attr title "tx state"
56	1477971 9 0 0 0 0 1 0 0 0 0
vector 57 Highway5G.gNodeB2.udp passedUpPk:vector(count) ETV
attr interpolationmode none
attr recordingmode vector(count)
attr source packetSentToUpper
attr title "packets passed up, count"
57	1477980 9 0 0 0 0 1 0 0 0 0
vector 58 Highway5G.gNodeB2.udp droppedPkWrongPort:vector(count) ETV
attr interpolationmode none
attr recordingmode vector(count)
attr source packetDropReasonIsNoPortFound(packetDropped)
attr title "packets dropped (wrong port), count"
58	1477989 9 0 0 0 0 1 0 0 0 0
vector 59 Highway5G.gNodeB2.udp droppedPkBadChecksum:vector(count) ETV
attr interpolationmode none
attr recordingmode vector(count)
attr source packetDropReasonIsIncorrectlyReceived(packetDropped)
attr title "packets dropped (checksum error), count"
59	1477998 9 0 0 0 0 1 0 0 0 0
vector 60 Highway5G.gNodeB3.pppIf.queue queueLength:vector ETV
attr autoWarmupFilter false
attr interpolationmode sample-hold
attr recordingmode vector
attr source "warmup(atomic(constant0(packetPushEnded) + count(packetPushStarted) - count(packetPulled) - count(packetRemoved) - count(packetDropped)))"
attr title "queue length"
attr unit pk
60	1478007 19704 0 673592 0 17.048 1058 0 0 0 0
60	13973909 28893 673981 1342940 17.054 25.843 1417 0 2 316 442
60	27345203 15397 1343412 2080584 25.848 33.519 770 0 0 0 0
60	41132205 18163 2082628 2839399 33.539 40.141 905 0 1 9 9
60	55065254 18086 2840686 3545407 40.151 45.044 897 0 1 21 21
60	68938189 23219 3546183 4288285 45.049 49.85 1127 0 1 103 103
60	82877373 20601 4289427 4999082 49.858 54.201 1018 0 1 41 41
60	96816910 15740 5000576 5708223 54.21 58.214 783 0 1 41 41
60	110750790 21367 5708942 6456086 58.218 62.412 1050 0 2 62 64
60	124852652 17814 6456313 7168471 62.413 66.2540000888 889 0 1 7 7
60	138932611 14391 7169401 7889715 66.259 70.267 698 0 1 62 62
60	152708430 19444 7890083 8615726 70.269 74.577 943 0 1 93 93
60	167005686 21592 8617155 9315909 74.585 78.477 1060 0 1 56 56
60	180825775 19258 9317053 10057374 78.483 83.152 948 0 1 32 32
60	195048424 25291 10057432 10748556 83.1520000888 87.279 1195 0 1 27 27
60	209510354 28136 10750123 11417097 87.288 91.315 1294 0 2 155 165
60	223985918 38808 11417263 12120606 91.316 95.871 1800 0 2 150 154
60	238795605 41420 12121113 12854961 95.874 101.053 1906 0 2 290 346
60	253262508 48622 12855883 13557454 101.06 106.0920000888 2113 0 2 321 325
60	268272141 39076 13557571 14258062 106.093 111.309 1702 0 3 275 285
60	283440537 36850 14259784 14962487 111.323 117.437 1637 0 1 123 123
60	298462256 30268 14963008 15670110 117.442 123.9900000888 1347 0 1 131 131
60	313659439 39016 15671048 16379566 123.999 131.176 1691 0 2 370 450
60	329261069 36997 16380519 17120961 131.187 140.472 1647 0 1 121 121
60	344227226 18932 17122405 17830964 140.491 150.732 861 0 1 2 2
60	359704760 24210 17831474 18515673 150.739 161.887 1084 0 1 75 75
60	374425890 13019 18516763 19214938 161.907 177.249 596 0 0 0 0
60	390501408 2154 19215750 19947449 177.269 207.355 98 0 0 0 0
60	405673529 10851 19947783 20264799 207.375 226.097 494 0 0 0 0
vector 61 Highway5G.gNodeB3.pppIf.queue queueBitLength:vector ETV
attr autoWarmupFilter false
attr interpolationmode sample-hold
attr recordingmode vector
attr source "warmup(atomic(constant0(packetPushEnded) + sum(packetLength(packetPushStarted)) - sum(packetLength(packetPulled)) - sum(packetLength(packetRemoved)) - sum(packetLength(packetDropped))))"
attr title "queue bit length"
attr unit b
61	1497711 19704 0 673592 0 17.048 1058 0 0 0 0
61	14002802 29462 673981 1342940 17.054 25.843 1417 0 1664 262912 305963008
61	27360600 15397 1343412 2080584 25.848 33.519 770 0 0 0 0
61	41150368 18181 2082628 2839399 33.539 40.141 905 0 832 7488 6230016
61	55083340 18128 2840686 3545407 40.151 45.044 897 0 832 17472 14536704
61	68961408 23425 3546183 4288285 45.049 49.85 1127 0 832 85696 71299072
61	82897974 20683 4289427 4999082 49.858 54.201 1018 0 832 34112 28381184
61	96832650 15822 5000576 5708223 54.21 58.214 783 0 832 34112 28381184
61	110772157 21490 5708942 6456086 58.218 62.412 1050 0 1664 51584 44302336
61	124870466 17828 6456313 7168471 62.413 66.2540000888 889 0 832 5824 4845568
61	138947002 14515 7169401 7889715 66.259 70.267 698 0 832 51584 42917888
61	152727874 19630 7890083 8615726 70.269 74.577 943 0 832 77376 64376832
61	167027278 21704 8617155 9315909 74.585 78.477 1060 0 832 46592 38764544
61	180845033 19322 9317053 10057374 78.483 83.152 948 0 832 26624 22151168
61	195073715 25345 10057432 10748556 83.1520000888 87.279 1195 0 832 22464 18690048
61	209538490 28441 10750123 11417097 87.288 91.315 1294 0 1664 128960 114216960
61	224024726 39106 11417263 12120606 91.316 95.871 1800 0 1664 124800 106602496
61	238837025 41972 12121113 12854961 95.874 101.053 1906 0 1664 241280 239509504
61	253311130 49262 12855883 13557454 101.06 106.0920000888 2113 0 1664 267072 224972800
61	268311217 39621 13557571 14258062 106.093 111.309 1702 0 2496 228800 197283840
[...]
2384	137050666 2016 6502789 6502789 62.6680003588 62.6680003588 48 0.008255058636 0.008255118636 0.396242874528 0.003271008658633
2384	151107381 11675 7424782 7787599 67.6970004788 69.6900003588 283 0.008079220517 0.014450394079 2.477298538051 0.021725332708338
2384	165006791 8274 8507404 8507404 73.9770003588 73.9770003588 197 0.008823993595 0.014823993595 1.744332572615 0.0154809748932
2384	179164746 3965 8774535 9028375 75.4380003588 76.8470004788 95 0.008136639994 0.00861124808 0.78484545198 0.0064881734253026
2384	193232266 8148 9671300 9671300 80.7540003588 80.7540003588 194 0.008413164239 0.008413284239 1.632155422366 0.013731604756663
2384	207692313 4272 10140573 10665554 83.6570003588 86.7830003588 100 0.008304955755 0.00885272508 0.873154794099 0.0076264241840415
2384	222148099 4429 11014105 11184733 88.9460004476 89.9760005388 103 0.008285603652 0.014983404174 0.887332660236 0.0076969524515001
2384	236672454 5762 11514085 11822296 91.9210003588 93.9340003588 134 0.008412651834 0.008640905707 1.137798683914 0.0096626617043943
2384	251538390 11646 12551291 12775266 98.7460005388 100.4660003588 270 0.008018590429 0.008611153408 2.186349801474 0.017715121700775
2384	266494097 7392 13375389 13375389 104.8120003588 104.8120003588 168 0.008994828393 0.008995005993 1.511139517224 0.013592515717699
2384	281438786 8140 13806572 14015576 107.9690003588 109.5660004188 185 0.008686190694 0.014890662364 1.633752142894 0.014465060158934
2384	296559683 16500 14949873 14949873 117.3140003588 117.3140003588 375 0.008766020795 0.008766080795 3.287265298125 0.028816301707652
2384	311574010 301 15277359 15277359 120.3900004788 120.3900004788 7 0.00816480122 0.00816480122 0.05715360854 0.00046664785273479
2384	326756958 16588 15900734 16214968 126.3330004188 129.3930004188 377 0.008163021105 0.008992584729 3.313818389002 0.029166917831696
2384	342335796 13286 16427154 17103769 131.7140003588 140.2400003588 303 0.008147477195 0.014983680223 3.211142150031 0.03648797034006
2384	357288050 2200 17169597 17661955 141.0800003588 148.2120003588 50 0.008337038116 0.008698655272 0.427274632968 0.0036527787447366
2384	372607926 13863 18170272 18421027 155.7110003588 160.0970003588 322 0.008500927685 0.01457062836 3.070378953264 0.030846589273295
2384	387334642 20189 18535242 19179130 162.2620003588 176.3350003588 461 0.00804951026 0.020332673087 4.636944453603 0.049861385865839
2384	402957190 1452 19294125 19294125 179.1350003588 179.1350003588 33 0.008689412392 0.008689412392 0.286750608936 0.002491694294702
2384	413653983 2376 20386918 20386918 240 240 72 0.008004720127 0.014004720127 0.876339849144 0.011216271266635
vector 2385 Highway5G.car[39].cellularNic.nrMac harqErrorRate_2nd_Ul:vector ETV
attr recordingmode vector
attr source harqErrorRate_2nd_Ul
attr title "Harq Error Rate Ul (2nd tx)"
attr unit ""
2385	123042574 66 5876721 6403537 59.121 62.123 3 0 0 0 0
2385	137052682 352 6587672 7168670 63.123 66.255 16 0 1 1 1
2385	151119056 286 7170229 7499653 66.263 68.112 13 0 1 2 2
2385	165015065 22 8202953 8202953 72.112 72.112 1 0 0 0 0
2385	207696585 46 10488164 10517589 85.709 85.889 2 0 0 0 0
2385	281446926 48 13825182 14093694 108.113 110.113 2 0 0 0 0
2385	357290250 72 17587101 17655653 147.071 148.121 3 0 0 0 0
2385	372621789 72 17945661 18461488 152.335 160.896 3 0 0 0 0
2385	387354831 24 18916030 18916030 170.113 170.113 1 0 0 0 0
2385	402958642 120 19597379 19855032 189.119 201.767 5 0 0 0 0
vector 2386 Highway5G.server.app[39] voIPFrameDelay:vector ETV
attr recordingmode vector
attr source voIPFrameDelay
attr title "VoIP Frame Delay"
attr unit s
2386	123042640 4280 5902997 5902997 59.2760003588 59.2760003588 107 0.0080003588 0.0200003588 1.1630427908 0.013669940733262
2386	151119342 17724 7426109 7849513 67.7050003588 70.0380004476 422 0.008235831061 0.062235831061 5.575268344188 0.087519538584741
2386	165015087 42 7937024 7937024 70.5450004476 70.5450004476 1 0.014761431897 0.014761431897 0.014761431897 0.00021789987164977
2386	179168711 8862 8658730 9037135 74.8130005388 76.8990003588 211 0.008065080087 0.014498987821 2.508393921413 0.03166832689851
2386	193240414 12012 9999061 9999061 82.8080005388 82.8080005388 286 0.008212621348 0.014212798948 2.504828151928 0.022788554350685
2386	222152528 16684 11384721 11384721 91.1230004788 91.1230004788 388 0.008666970819 0.014667270819 4.064813592972 0.045526230360725
2386	236678216 3117 11724730 12081466 93.2690003588 95.6210003588 74 0.00875087596 0.008772252941 0.647757213869 0.0056701307493228
2386	251550036 3140 12395366 12766464 97.6910003588 100.4020003588 73 0.008035192988 0.008355310284 0.609615051836 0.0050909299732058
2386	266501489 1448 12911825 13106404 101.4800003588 102.9170004788 33 0.00807896382 0.008861541241 0.288067466346 0.0025167222556953
2386	281446974 1584 13662718 13662718 106.8660003588 106.8660003588 36 0.008712456931 0.008712516931 0.313648809516 0.0027326548808737
2386	296576183 13112 14458450 14794349 112.9290003588 115.7790003588 298 0.008591621266 0.014763657245 2.61323404907 0.022989846616642
2386	311574311 10516 15080055 15495250 118.5750003588 122.3810003588 239 0.008045690591 0.008841736344 1.993621607155 0.016653149471734
2386	342349082 29022 16532440 16994453 132.9770003588 138.7650003588 660 0.008143683017 0.00893856148 5.737583552963 0.049936989111328
2386	357290322 11836 17234529 17462491 141.8470003588 145.1540003588 269 0.008127517479 0.008984872714 2.350638353156 0.020567491301017
2386	372621861 18568 17850759 18342259 151.0070003588 158.6090004476 422 0.008072063693 0.064072063693 3.724593648729 0.038312204832666
2386	387354855 30008 18595327 19190521 163.4040004188 176.6400003588 682 0.008025832428 0.052443201705 5.9982756022639 0.057381156424833
2386	402958762 36001 19436426 19916128 183.7210003588 205.2970003588 820 0.008037934814 0.014943111259 7.0903045323141 0.062063236638217
2386	413656359 31019 19956617 20386918 207.8990003588 240 761 0.008020858472 0.008979119676 6.565349235885 0.056726108459069
vector 2387 Highway5G.car[24].cellularNic.nrMac harqErrorRate_2nd_Ul:vector ETV
attr recordingmode vector
attr source harqErrorRate_2nd_Ul
attr title "Harq Error Rate Ul (2nd tx)"
attr unit ""
2387	123046920 22 6229182 6229182 61.114 61.114 1 0 0 0 0
2387	193252426 23 10050339 10050339 83.111 83.111 1 0 0 0 0
2387	207696631 23 10554146 10554146 86.116 86.116 1 0 0 0 0
2387	222169212 23 11207732 11207732 90.111 90.111 1 0 0 0 0
vector 2388 Highway5G.car[31].cellularNic.nrMac harqErrorRate_2nd_Ul:vector ETV
attr recordingmode vector
attr source harqErrorRate_2nd_Ul
attr title "Harq Error Rate Ul (2nd tx)"
attr unit ""
2388	123046942 407 6229689 6229689 61.117 61.117 1 0 0 0 0
2388	151137066 22 7684121 7684121 69.119 69.119 1 0 0 0 0
2388	165015129 22 8531317 8531317 74.111 74.111 1 0 0 0 0
2388	222169235 23 11207738 11207738 90.111 90.111 1 1 1 1 1
2388	266502937 46 12996484 13135615 102.12 103.12 2 0 1 1 1
vector 2389 Highway5G.car[2].cellularNic.nrMac harqErrorRate_2nd_Ul:vector ETV
attr recordingmode vector
attr source harqErrorRate_2nd_Ul
attr title "Harq Error Rate Ul (2nd tx)"
attr unit ""
2389	137053034 22 6587666 6587666 63.123 63.123 1 0 0 0 0
2389	165015151 22 8037673 8037673 71.113 71.113 1 0 0 0 0
2389	207696654 46 10216146 10553784 84.114 86.114 2 0 0 0 0
2389	222169258 23 11042884 11042884 89.123 89.123 1 0 0 0 0
2389	372640429 24 18134649 18134649 155.111 155.111 1 0 0 0 0
2389	372810471 24 18579934 18579934 163.112 163.112 1 0 0 0 0
vector 2390 Highway5G.car[20].cellularNic.nrMac harqErrorRate_3rd_Ul:vector ETV
attr recordingmode vector
attr source harqErrorRate_3rd_Ul
attr title "Harq Error Rate Ul (3rd tx)"
attr unit ""
2390	137053056 22 6741005 6741005 63.928 63.928 1 0 0 0 0
2390	207696700 23 10721957 10721957 87.117 87.117 1 0 0 0 0
vector 2391 Highway5G.car[39].cellularNic.nrMac harqErrorRate_3rd_Ul:vector ETV
attr recordingmode vector
attr source harqErrorRate_3rd_Ul
attr title "Harq Error Rate Ul (3rd tx)"
attr unit ""
2391	137053078 794 7145093 7145093 66.135 66.135 1 0 0 0 0
2391	151137088 44 7185657 7189617 66.341 66.361 2 0 0 0 0
vector 2392 Highway5G.car[29].cellularNic.nrMac harqErrorRate_2nd_Ul:vector ETV
attr recordingmode vector
attr source harqErrorRate_2nd_Ul
attr title "Harq Error Rate Ul (2nd tx)"
attr unit ""
2392	151137132 22 7326577 7326577 67.121 67.121 1 0 0 0 0
2392	251553176 23 12315729 12315729 97.145 97.145 1 0 0 0 0
2392	281448558 71 13562819 14251036 106.13 111.258 3 0 0 0 0
2392	281797441 120 14295351 14483445 111.598 113.118 5 0 1 1 1
vector 2393 Highway5G.car[30].cellularNic.nrMac harqErrorRate_2nd_Ul:vector ETV
attr recordingmode vector
attr source harqErrorRate_2nd_Ul
attr title "Harq Error Rate Ul (2nd tx)"
attr unit ""
2393	151137154 21 7397920 7397920 67.54 67.54 1 0 0 0 0
2393	165015173 22 8367453 8367453 73.124 73.124 1 0 0 0 0
2393	222169281 23 11207948 11207948 90.112 90.112 1 0 0 0 0
2393	251553199 23 12459477 12459477 98.114 98.114 1 0 0 0 0
2393	311584827 24 15465717 15465717 122.127 122.127 1 0 0 0 0
2393	311854530 24 15979447 15979447 127.127 127.127 1 0 0 0 0
vector 2394 Highway5G.car[40].cellularNic.nrMac harqErrorRate_2nd_Ul:vector ETV
attr recordingmode vector
attr source harqErrorRate_2nd_Ul
attr title "Harq Error Rate Ul (2nd tx)"
attr unit ""
2394	151137175 22 7499416 7499416 68.111 68.111 1 0 0 0 0
2394	165015195 215 8203781 8203781 72.117 72.117 1 0 0 0 0
2394	222169304 23 11041151 11041151 89.113 89.113 1 0 0 0 0
2394	281448629 24 13825588 13825588 108.116 108.116 1 0 0 0 0
2394	357302158 24 17791156 17791156 150.119 150.119 1 0 0 0 0
2394	372640453 24 18003106 18003106 153.119 153.119 1 0 0 0 0
2394	387384863 24 18780809 18780809 167.117 167.117 1 0 0 0 0
vector 2395 Highway5G.car[35].cellularNic.nrMac harqErrorRate_2nd_Ul:vector ETV
attr recordingmode vector
attr source harqErrorRate_2nd_Ul
attr title "Harq Error Rate Ul (2nd tx)"
attr unit ""
2395	151137197 22 7500179 7500179 68.115 68.115 1 0 0 0 0
2395	179177573 22 8715513 8715513 75.124 75.124 1 0 0 0 0
2395	296589295 24 14358722 14358722 112.112 112.112 1 0 0 0 0
2395	326773546 48 16085506 16374663 128.119 131.119 2 0 0 0 0
vector 2396 Highway5G.car[3].cellularNic.nrMac harqErrorRate_2nd_Ul:vector ETV
attr recordingmode vector
attr source harqErrorRate_2nd_Ul
attr title "Harq Error Rate Ul (2nd tx)"
attr unit ""
2396	151137219 22 7863800 7863800 70.118 70.118 1 0 0 0 0
2396	326773594 48 15683510 16374661 124.117 131.119 2 0 0 0 0
2396	342378104 24 16946998 16946998 138.115 138.115 1 0 0 0 0
2396	357302182 24 17393123 17393123 144.117 144.117 1 0 0 0 0
vector 2397 Highway5G.car[13].cellularNic.nrMac harqErrorRate_2nd_Ul:vector ETV
attr recordingmode vector
attr source harqErrorRate_2nd_Ul
attr title "Harq Error Rate Ul (2nd tx)"
attr unit ""
2397	179177595 22 8899469 8899469 76.114 76.114 1 0 0 0 0
2397	207696723 46 10216865 10389116 84.118 85.118 2 0 0 0 0
2397	222169327 23 11384347 11384347 91.121 91.121 1 0 0 0 0
2397	372640477 24 18421908 18421908 160.114 160.114 1 1 1 1 1
vector 2398 Highway5G.car[11].cellularNic.nrMac harqErrorRate_2nd_Ul:vector ETV
attr recordingmode vector
attr source harqErrorRate_2nd_Ul
attr title "Harq Error Rate Ul (2nd tx)"
attr unit ""
2398	179177617 22 9076823 9076823 77.119 77.119 1 0 0 0 0
2398	296589319 217 14829463 14829463 116.115 116.115 1 0 0 0 0
2398	342378128 24 16869447 16869447 137.116 137.116 1 0 0 0 0
2398	387384887 48 18832774 19045437 168.115 173.129 2 0 0 0 0
2398	402994763 95 19446955 19895470 184.12 204.118 4 0 0 0 0
2398	403860136 24 20006509 20006509 211.115 211.115 1 0 0 0 0
vector 2399 Highway5G.car[38].cellularNic.nrMac harqErrorRate_2nd_Ul:vector ETV
attr recordingmode vector
attr source harqErrorRate_2nd_Ul
attr title "Harq Error Rate Ul (2nd tx)"
attr unit ""
2399	222169350 23 11206702 11206702 90.105 90.105 1 0 0 0 0
2399	311584851 48 15282810 15285070 120.439 120.459 2 0 0 0 0
vector 2400 Highway5G.car[31].cellularNic.nrMac harqErrorRate_3rd_Ul:vector ETV
attr recordingmode vector
attr source harqErrorRate_3rd_Ul
attr title "Harq Error Rate Ul (3rd tx)"
attr unit ""
2400	222169373 23 11208856 11208856 90.117 90.117 1 0 0 0 0
2400	266502983 24 12997357 12997357 102.126 102.126 1 0 0 0 0
vector 2401 Highway5G.car[32].cellularNic.nrMac harqErrorRate_2nd_Ul:vector ETV
attr recordingmode vector
attr source harqErrorRate_2nd_Ul
attr title "Harq Error Rate Ul (2nd tx)"
attr unit ""
2401	251553222 24 12728620 12728620 100.117 100.117 1 0 0 0 0
2401	357302206 24 17790710 17790710 150.112 150.112 1 0 0 0 0
2401	387384935 48 18780526 18878110 167.111 169.111 2 0 0 0 0
vector 2402 Highway5G.car[29].cellularNic.nrMac harqErrorRate_3rd_Ul:vector ETV
attr recordingmode vector
attr source harqErrorRate_3rd_Ul
attr title "Harq Error Rate Ul (3rd tx)"
attr unit ""
2402	281797417 24 14484277 14484277 113.124 113.124 1 0 0 0 0
vector 2403 Highway5G.car[21].cellularNic.nrMac harqErrorRate_3rd_Ul:vector ETV
attr recordingmode vector
attr source harqErrorRate_3rd_Ul
attr title "Harq Error Rate Ul (3rd tx)"
attr unit ""
2403	311584899 24 15248727 15248727 120.129 120.129 1 0 0 0 0
vector 2404 Highway5G.car[34].cellularNic.nrMac harqErrorRate_3rd_Ul:vector ETV
attr recordingmode vector
attr source harqErrorRate_3rd_Ul
attr title "Harq Error Rate Ul (3rd tx)"
attr unit ""
2404	326773642 24 15978663 15978663 127.119 127.119 1 0 0 0 0
2404	372640501 96 18315308 18474076 158.121 161.132 4 1 1 4 4
vector 2405 Highway5G.car[37].cellularNic.nrMac harqErrorRate_2nd_Ul:vector ETV
attr recordingmode vector
attr source harqErrorRate_2nd_Ul
attr title "Harq Error Rate Ul (2nd tx)"
attr unit ""
2405	342378152 24 17094494 17094494 140.113 140.113 1 0 0 0 0
2405	388964282 24 19293331 19293331 179.114 179.114 1 0 0 0 0
vector 2406 Highway5G.car[33].cellularNic.nrMac harqErrorRate_3rd_Ul:vector ETV
attr recordingmode vector
attr source harqErrorRate_3rd_Ul
attr title "Harq Error Rate Ul (3rd tx)"
attr unit ""
2406	357302230 24 17728701 17728701 149.152 149.152 1 0 0 0 0
vector 2407 Highway5G.car[34].cellularNic.nrMac harqErrorRate_4th_Ul:vector ETV
attr recordingmode vector
attr source harqErrorRate_4th_Ul
attr title "Harq Error Rate Ul (4th tx)"
attr unit ""
2407	372640597 96 18315633 18474372 158.127 161.138 4 1 1 4 4
vector 2408 Highway5G.car[13].cellularNic.nrMac harqErrorRate_3rd_Ul:vector ETV
attr recordingmode vector
attr source harqErrorRate_3rd_Ul
attr title "Harq Error Rate Ul (3rd tx)"
attr unit ""
2408	372640693 23 18422217 18422217 160.12 160.12 1 0 0 0 0
vector 2409 Highway5G.server.ppp[0].queue outgoingDataRate:vector ETV
attr interpolationmode linear
attr recordingmode vector
attr source throughput(packetPulled)
attr title "outgoing datarate"
attr unit bps
2409	413687378 51222 20386918 20386918 0.1 240 2400 0 0 0 0
vector 2410 Highway5G.server.ppp[0].queue incomingDataRate:vector ETV
attr interpolationmode linear
attr recordingmode vector
attr source throughput(packetPushStarted)
attr title "incoming datarate"
attr unit bps
2410	413738600 51222 20386918 20386918 0.1 240 2400 0 0 0 0
vector 2411 Highway5G.router.ppp[1].queue outgoingDataRate:vector ETV
attr interpolationmode linear
attr recordingmode vector
attr source throughput(packetPulled)
attr title "outgoing datarate"
attr unit bps
2411	413789822 51222 20386918 20386918 0.1 240 2400 0 0 0 0
vector 2412 Highway5G.router.ppp[1].queue incomingDataRate:vector ETV
attr interpolationmode linear
attr recordingmode vector
attr source throughput(packetPushStarted)
attr title "incoming datarate"
attr unit bps
2412	413841044 51222 20386918 20386918 0.1 240 2400 0 0 0 0
vector 2413 Highway5G.upf.ppp[0].queue outgoingDataRate:vector ETV
attr interpolationmode linear
attr recordingmode vector
attr source throughput(packetPulled)
attr title "outgoing datarate"
attr unit bps
2413	413892266 51222 20386918 20386918 0.1 240 2400 0 0 0 0
vector 2414 Highway5G.upf.ppp[0].queue incomingDataRate:vector ETV
attr interpolationmode linear
attr recordingmode vector
attr source throughput(packetPushStarted)
attr title "incoming datarate"
attr unit bps
2414	413943488 51222 20386918 20386918 0.1 240 2400 0 0 0 0
vector 2415 Highway5G.upf.ppp[1].queue outgoingDataRate:vector ETV
attr interpolationmode linear
attr recordingmode vector
attr source throughput(packetPulled)
attr title "outgoing datarate"
attr unit bps
2415	413994710 51222 20386918 20386918 0.1 240 2400 0 0 0 0
vector 2416 Highway5G.upf.ppp[1].queue incomingDataRate:vector ETV
attr interpolationmode linear
attr recordingmode vector
attr source throughput(packetPushStarted)
attr title "incoming datarate"
attr unit bps
2416	414045932 51222 20386918 20386918 0.1 240 2400 0 0 0 0
vector 2417 Highway5G.upf.ppp[2].queue outgoingDataRate:vector ETV
attr interpolationmode linear
attr recordingmode vector
attr source throughput(packetPulled)
attr title "outgoing datarate"
attr unit bps
2417	414097154 51222 20386918 20386918 0.1 240 2400 0 0 0 0
vector 2418 Highway5G.upf.ppp[2].queue incomingDataRate:vector ETV
attr interpolationmode linear
attr recordingmode vector
attr source throughput(packetPushStarted)
attr title "incoming datarate"
attr unit bps
2418	414148376 51222 20386918 20386918 0.1 240 2400 0 0 0 0
vector 2419 Highway5G.upf.ppp[3].queue outgoingDataRate:vector ETV
attr interpolationmode linear
attr recordingmode vector
attr source throughput(packetPulled)
attr title "outgoing datarate"
attr unit bps
2419	414199598 51222 20386918 20386918 0.1 240 2400 0 0 0 0
vector 2420 Highway5G.upf.ppp[3].queue incomingDataRate:vector ETV
attr interpolationmode linear
attr recordingmode vector
attr source throughput(packetPushStarted)
attr title "incoming datarate"
attr unit bps
2420	414250820 51222 20386918 20386918 0.1 240 2400 0 0 0 0
vector 2421 Highway5G.gNodeB1.pppMEHostIf.queue outgoingDataRate:vector ETV
attr interpolationmode linear
attr recordingmode vector
attr source throughput(packetPulled)
attr title "outgoing datarate"
attr unit bps
2421	414302042 51222 20386918 20386918 0.1 240 2400 0 0 0 0
vector 2422 Highway5G.gNodeB1.pppMEHostIf.queue incomingDataRate:vector ETV
attr interpolationmode linear
attr recordingmode vector
attr source throughput(packetPushStarted)
attr title "incoming datarate"
attr unit bps
2422	414353264 51222 20386918 20386918 0.1 240 2400 0 0 0 0
vector 2423 Highway5G.gNodeB2.pppMEHostIf.queue outgoingDataRate:vector ETV
attr interpolationmode linear
attr recordingmode vector
attr source throughput(packetPulled)
attr title "outgoing datarate"
attr unit bps
2423	414404486 51222 20386918 20386918 0.1 240 2400 0 0 0 0
vector 2424 Highway5G.gNodeB2.pppMEHostIf.queue incomingDataRate:vector ETV
attr interpolationmode linear
attr recordingmode vector
attr source throughput(packetPushStarted)
attr title "incoming datarate"
attr unit bps
2424	414455708 51222 20386918 20386918 0.1 240 2400 0 0 0 0
vector 2425 Highway5G.gNodeB3.pppMEHostIf.queue outgoingDataRate:vector ETV
attr interpolationmode linear
attr recordingmode vector
attr source throughput(packetPulled)
attr title "outgoing datarate"
attr unit bps
2425	414506930 51222 20386918 20386918 0.1 240 2400 0 0 0 0
vector 2426 Highway5G.gNodeB3.pppMEHostIf.queue incomingDataRate:vector ETV
attr interpolationmode linear
attr recordingmode vector
attr source throughput(packetPushStarted)
attr title "incoming datarate"
attr unit bps
2426	414558152 51222 20386918 20386918 0.1 240 2400 0 0 0 0
vector 2427 Highway5G.gNodeB4.pppMEHostIf.queue outgoingDataRate:vector ETV
attr interpolationmode linear
attr recordingmode vector
attr source throughput(packetPulled)
attr title "outgoing datarate"
attr unit bps
2427	414609374 51222 20386918 20386918 0.1 240 2400 0 0 0 0
vector 2428 Highway5G.gNodeB4.pppMEHostIf.queue incomingDataRate:vector ETV
attr interpolationmode linear
attr recordingmode vector
attr source throughput(packetPushStarted)
attr title "incoming datarate"
attr unit bps
2428	414660596 51223 20386918 20386918 0.1 240 2400 0 0 0 0
