file 120167948 1751743677                                       
version 2
run VoIP-UL-0-20250705-15:53:54-361946
attr configname VoIP-UL
attr datetime 20250705-15:53:54
attr datetimef 20250705-155354
attr experiment VoIP-UL
attr inifile omnetpp.ini
attr iterationvars ""
attr iterationvarsd ""
attr iterationvarsf ""
attr measurement ""
attr network Highway5G
attr processid 361946
attr repetition 0
attr replication #0
attr resultdir results
attr runnumber 0
attr seedset 0
config image-path ../../../../../../../OMNET/omnetpp-6.0.3/workspaces/inet4.5/images:../../../../../../../OMNET/omnetpp-6.0.3/workspaces/simu5g/images:../../../../../../../Dev/veins_new/images
config *.server.numApps 45
config *.server.app[*].typename VoIPReceiver
config *.server.app[*].localPort "3000 + ancestorIndex(0)"
config *.car[*].numApps 1
config *.car[*].app[0].typename VoIPSender
config *.car[*].app[0].destAddress "\"server\""
config *.car[*].app[0].destPort "3000 + ancestorIndex(1)"
config cmdenv-express-mode true
config cmdenv-autoflush true
config image-path ../../images
config network Highway5G
config debug-on-errors false
config print-undisposed false
config sim-time-limit 60s
config **.sctp.**.scalar-recording true
config **.sctp.**.vector-recording true
config **.routingRecorder.enabled false
config *.veinsManager.host "\"localhost\""
config *.veinsManager.port 9999
config *.veinsManager.moduleType "\"simu5g.nodes.cars.NRCar\""
config *.veinsManager.moduleName "\"car\""
config *.veinsManager.launchConfig "xmldoc(\"cenarioA.launchd.xml\")"
config *.veinsManager.updateInterval 0.1s
config *.physicalEnvironment.config "xmldoc(\"obstacles.xml\")"
config *.radioMedium.obstacleLoss.typename IdealObstacleLoss
config *.car[*].mobility.typename projectpredicthandover.veins_inet.VeinsInetMobility
config **.mobility.constraintAreaMaxX 3000m
config **.mobility.constraintAreaMinX 0m
config **.mobility.constraintAreaMaxY 3000m
config **.mobility.constraintAreaMinY 0m
config **.mobility.constraintAreaMinZ 0m
config **.mobility.constraintAreaMaxZ 10m
config *.gNodeB1.mobility.initialX 1129.71m
config *.gNodeB1.mobility.initialY 555.867m
config *.gNodeB1.mobility.initialZ 0m
config *.gNodeB1.mobility.constraintAreaMinX 1129.71m
config *.gNodeB1.mobility.constraintAreaMaxX 1129.71m
config *.gNodeB1.mobility.constraintAreaMinY 555.867m
config *.gNodeB1.mobility.constraintAreaMaxY 555.867m
config *.gNodeB1.mobility.constraintAreaMinZ 0m
config *.gNodeB1.mobility.constraintAreaMaxZ 0m
config *.gNodeB2.mobility.initialX 1939.01m
config *.gNodeB2.mobility.initialY 1157.78m
config *.gNodeB2.mobility.initialZ 1.5m
config *.gNodeB2.mobility.constraintAreaMinX 1939.01m
config *.gNodeB2.mobility.constraintAreaMaxX 1939.01m
config *.gNodeB2.mobility.constraintAreaMinY 1157.78m
config *.gNodeB2.mobility.constraintAreaMaxY 1157.78m
config *.gNodeB2.mobility.constraintAreaMinZ 0m
config *.gNodeB2.mobility.constraintAreaMaxZ 0m
config **.numBands 25
config **.ueTxPower 26
config **.eNodeBTxPower 46
config *.car[*].cellularNic.nrPhy.dynamicCellAssociation true
config *.car[*].masterId 0
config *.car[*].macCellId 0
config *.car[*].nrMasterId 1
config *.car[*].nrMacCellId 1
config **.gNodeB1.macCellId 1
config **.gNodeB1.macNodeId 1
config **.gNodeB2.macCellId 2
config **.gNodeB2.macNodeId 2
config *.car[*].cellularNic.nrPhy.enableHandover true
config *.gNodeB*.cellularNic.phy.enableHandover true
config *.gNodeB*.cellularNic.phy.handoverLatency 50ms
config *.gNodeB*.cellInfo.broadcastMessageInterval 1s
config *.gNodeB*.numX2Apps 1
config *.gNodeB*.x2App[*].server.localPort "5000 + ancestorIndex(1)"
config *.gNodeB1.x2App[0].client.connectAddress "\"gNodeB2%x2ppp0\""
config *.gNodeB2.x2App[0].client.connectAddress "\"gNodeB1%x2ppp0\""
config **.sctp.nagleEnabled false
config **.sctp.enableHeartbeats false
config *.visualizer.*.obstacleLossVisualizer.displayIntersections true
config *.visualizer.*.obstacleLossVisualizer.displayFaceNormalVectors true
config *.visualizer.*.obstacleLossVisualizer.intersectionLineColor "\"yellow\""
config *.visualizer.*.mediumVisualizer.signalPropagationAnimationSpeed 500/3e8
config *.visualizer.*.mediumVisualizer.signalTransmissionAnimationSpeed 50000/3e8
config *.visualizer.*.mediumVisualizer.displaySignals true
config *.visualizer.canvasVisualizer.mediumVisualizer.displaySignalDepartures false
config *.visualizer.canvasVisualizer.mediumVisualizer.displaySignalArrivals false
config *.visualizer.*.physicalLinkVisualizer.displayLinks true
config **.scalar-recording true
config **.vector-recording true
config **.mobility.tracemobility true
config **.car[*].cellularNic.nrPhy.sinrChanged.vector-recording true
config **.car[*].cellularNic.nrPhy.rsrpChanged.vector-recording true
config **.car[*].cellularNic.nrPhy.rssiChanged.vector-recording true
config **.car[*].cellularNic.nrPhy.cellIdChanged.vector-recording true
config **.car[*].cellularNic.nrMac.handoverStarted.vector-recording true
config **.car[*].cellularNic.nrMac.handoverCompleted.vector-recording true
config **.car[*].app[*].endToEndDelay.vector-recording true
config **.car[*].app[*].throughput.vector-recording true
config **.car[*].udpApp[*].endToEndDelay.vector-recording true
config **.car[*].udpApp[*].throughput.vector-recording true
config **.car[*].cellularNic.rlc.throughput.vector-recording true
config **.car[*].cellularNic.rlc.packetDelay.vector-recording true
config **.gNodeB*.x2App[*].handoverStarted.vector-recording true
config **.gNodeB*.x2App[*].handoverCompleted.vector-recording true
config **.car[*].mobility.posX.vector-recording true
config **.car[*].mobility.posY.vector-recording true
config **.car[*].mobility.posZ.vector-recording true
config **.car[*].mobility.speed.vector-recording true

vector 0 Highway5G.server.ppp[0].queue queueLength:vector ETV
attr autoWarmupFilter false
attr interpolationmode sample-hold
attr recordingmode vector
attr source "warmup(atomic(constant0(packetPushEnded) + count(packetPushStarted) - count(packetPulled) - count(packetRemoved) - count(packetDropped)))"
attr title "queue length"
attr unit pk
0	126677 40 0 0 0 0 5 0 0 0 0
vector 1 Highway5G.server.ppp[0].queue queueBitLength:vector ETV
attr autoWarmupFilter false
attr interpolationmode sample-hold
attr recordingmode vector
attr source "warmup(atomic(constant0(packetPushEnded) + sum(packetLength(packetPushStarted)) - sum(packetLength(packetPulled)) - sum(packetLength(packetRemoved)) - sum(packetLength(packetDropped))))"
attr title "queue bit length"
attr unit b
1	126717 40 0 0 0 0 5 0 0 0 0
vector 2 Highway5G.server.ppp[0].ppp transmissionState:vector ETV
attr interpolationmode sample-hold
attr recordingmode vector
attr source transmissionStateChanged
attr title "tx state"
2	126757 8 0 0 0 0 1 0 0 0 0
vector 3 Highway5G.server.udp passedUpPk:vector(count) ETV
attr interpolationmode none
attr recordingmode vector(count)
attr source packetSentToUpper
attr title "packets passed up, count"
3	126765 122167 0 704743 0 18.7410003588 4478 0 4477 10024003 29921648955
3	12720872 138727 704854 1391638 18.7430003588 27.4340004788 4851 4478 9328 33486453 240669876909
3	26110713 145159 1391815 2073099 27.4360003588 33.9900003588 4861 9329 14189 57160499 681722151451
3	39771249 145078 2073394 2744510 33.9930003588 39.3250003588 4836 14190 19025 80313870 1343237514710
3	53437643 147060 2744656 3456905 39.3260003588 44.4480004188 4902 19026 23927 105277803 2270814828955
3	67226142 147743 3457183 4159084 44.4500003588 48.7540003588 4925 23928 28852 129970750 3439883004850
3	81077912 145019 4159648 4881620 48.7580003588 53.2280006252 4834 28853 33686 151156763 4736009630701
3	94914610 143518 4881953 5586180 53.2300003588 57.2370003588 4784 33687 38470 172599544 6236256794664
3	108732155 122164 5586372 6125563 57.2380003588 59.9990004476 4073 38471 42543 164985011 6688678534989
vector 4 Highway5G.server.udp droppedPkWrongPort:vector(count) ETV
attr interpolationmode none
attr recordingmode vector(count)
attr source packetDropReasonIsNoPortFound(packetDropped)
attr title "packets dropped (wrong port), count"
4	248932 8 0 0 0 0 1 0 0 0 0
vector 5 Highway5G.server.udp droppedPkBadChecksum:vector(count) ETV
attr interpolationmode none
attr recordingmode vector(count)
attr source packetDropReasonIsIncorrectlyReceived(packetDropped)
attr title "packets dropped (checksum error), count"
5	248940 8 0 0 0 0 1 0 0 0 0
vector 6 Highway5G.router.ppp[0].queue queueLength:vector ETV
attr autoWarmupFilter false
attr interpolationmode sample-hold
attr recordingmode vector
attr source "warmup(atomic(constant0(packetPushEnded) + count(packetPushStarted) - count(packetPulled) - count(packetRemoved) - count(packetDropped)))"
attr title "queue length"
attr unit pk
6	248948 109900 0 704850 0 18.7430002488 4483 0 0 0 0
6	12859599 124149 704922 1391630 18.7440002488 27.4340003688 4850 0 0 0 0
6	26255872 126386 1391811 2073095 27.4360002488 33.9900002488 4861 0 0 0 0
6	39916327 125760 2073390 2744648 33.9930002488 39.3260002488 4837 0 0 0 0
6	53584703 127426 2744653 3456897 39.3260003376 44.4480003088 4901 0 0 0 0
6	67373885 128043 3457175 4159080 44.4500002488 48.7540002488 4925 0 0 0 0
6	81222931 125683 4159644 4881612 48.7580002488 53.2280005152 4834 0 0 0 0
6	95058128 124382 4881949 5586176 53.2300002488 57.2370002488 4784 0 0 0 0
6	108854319 105872 5586368 6125555 57.2380002488 59.9990003376 4073 0 0 0 0
vector 7 Highway5G.router.ppp[0].queue queueBitLength:vector ETV
attr autoWarmupFilter false
attr interpolationmode sample-hold
attr recordingmode vector
attr source "warmup(atomic(constant0(packetPushEnded) + sum(packetLength(packetPushStarted)) - sum(packetLength(packetPulled)) - sum(packetLength(packetRemoved)) - sum(packetLength(packetDropped))))"
attr title "queue bit length"
attr unit b
7	358848 109900 0 704850 0 18.7430002488 4483 0 0 0 0
7	12983748 124149 704922 1391630 18.7440002488 27.4340003688 4850 0 0 0 0
7	26382258 126386 1391811 2073095 27.4360002488 33.9900002488 4861 0 0 0 0
7	40042087 125760 2073390 2744648 33.9930002488 39.3260002488 4837 0 0 0 0
7	53712129 127426 2744653 3456897 39.3260003376 44.4480003088 4901 0 0 0 0
7	67501928 128043 3457175 4159080 44.4500002488 48.7540002488 4925 0 0 0 0
7	81348614 125683 4159644 4881612 48.7580002488 53.2280005152 4834 0 0 0 0
7	95182510 124382 4881949 5586176 53.2300002488 57.2370002488 4784 0 0 0 0
7	108960191 105872 5586368 6125555 57.2380002488 59.9990003376 4073 0 0 0 0
vector 8 Highway5G.router.ppp[0].ppp transmissionState:vector ETV
attr interpolationmode sample-hold
attr recordingmode vector
attr source transmissionStateChanged
attr title "tx state"
8	468748 219728 0 704851 0 18.7430003088 8957 0 1 4478 4478
8	13107897 248298 704922 1391635 18.7440002488 27.4340004288 9700 0 1 4850 4850
8	26508644 252772 1391811 2073096 27.4360002488 33.9900003088 9722 0 1 4861 4861
8	40167847 251546 2073390 2744653 33.9930002488 39.3260003376 9675 0 1 4838 4838
8	53839555 254826 2744658 3456902 39.3260003976 44.4480003688 9801 0 1 4900 4900
8	67629971 256086 3457175 4159081 44.4500002488 48.7540003088 9850 0 1 4925 4925
8	81474297 251366 4159644 4881617 48.7580002488 53.2280005752 9668 0 1 4834 4834
8	95306892 248764 4881949 5586177 53.2300002488 57.2370003088 9568 0 1 4784 4784
8	109066063 211744 5586368 6125560 57.2380002488 59.9990003976 8146 0 1 4073 4073
vector 9 Highway5G.router.ppp[1].queue queueLength:vector ETV
attr autoWarmupFilter false
attr interpolationmode sample-hold
attr recordingmode vector
attr source "warmup(atomic(constant0(packetPushEnded) + count(packetPushStarted) - count(packetPulled) - count(packetRemoved) - count(packetDropped)))"
attr title "queue length"
attr unit pk
9	688476 40 0 0 0 0 5 0 0 0 0
vector 10 Highway5G.router.ppp[1].queue queueBitLength:vector ETV
attr autoWarmupFilter false
attr interpolationmode sample-hold
attr recordingmode vector
attr source "warmup(atomic(constant0(packetPushEnded) + sum(packetLength(packetPushStarted)) - sum(packetLength(packetPulled)) - sum(packetLength(packetRemoved)) - sum(packetLength(packetDropped))))"
attr title "queue bit length"
attr unit b
10	688516 45 0 0 0 0 5 0 0 0 0
vector 11 Highway5G.router.ppp[1].ppp transmissionState:vector ETV
attr interpolationmode sample-hold
attr recordingmode vector
attr source transmissionStateChanged
attr title "tx state"
11	688561 9 0 0 0 0 1 0 0 0 0
vector 12 Highway5G.upf.ppp[0].queue queueLength:vector ETV
attr autoWarmupFilter false
attr interpolationmode sample-hold
attr recordingmode vector
attr source "warmup(atomic(constant0(packetPushEnded) + count(packetPushStarted) - count(packetPulled) - count(packetRemoved) - count(packetDropped)))"
attr title "queue length"
attr unit pk
12	688570 45 0 0 0 0 5 0 0 0 0
vector 13 Highway5G.upf.ppp[0].queue queueBitLength:vector ETV
attr autoWarmupFilter false
attr interpolationmode sample-hold
attr recordingmode vector
attr source "warmup(atomic(constant0(packetPushEnded) + sum(packetLength(packetPushStarted)) - sum(packetLength(packetPulled)) - sum(packetLength(packetRemoved)) - sum(packetLength(packetDropped))))"
attr title "queue bit length"
attr unit b
13	688615 45 0 0 0 0 5 0 0 0 0
vector 14 Highway5G.upf.ppp[0].ppp transmissionState:vector ETV
attr interpolationmode sample-hold
attr recordingmode vector
attr source transmissionStateChanged
attr title "tx state"
14	688660 9 0 0 0 0 1 0 0 0 0
vector 15 Highway5G.upf.ppp[1].queue queueLength:vector ETV
attr autoWarmupFilter false
attr interpolationmode sample-hold
attr recordingmode vector
attr source "warmup(atomic(constant0(packetPushEnded) + count(packetPushStarted) - count(packetPulled) - count(packetRemoved) - count(packetDropped)))"
attr title "queue length"
attr unit pk
15	688669 45 0 0 0 0 5 0 0 0 0
vector 16 Highway5G.upf.ppp[1].queue queueBitLength:vector ETV
attr autoWarmupFilter false
attr interpolationmode sample-hold
attr recordingmode vector
attr source "warmup(atomic(constant0(packetPushEnded) + sum(packetLength(packetPushStarted)) - sum(packetLength(packetPulled)) - sum(packetLength(packetRemoved)) - sum(packetLength(packetDropped))))"
attr title "queue bit length"
attr unit b
16	688714 45 0 0 0 0 5 0 0 0 0
vector 17 Highway5G.upf.ppp[1].ppp transmissionState:vector ETV
attr interpolationmode sample-hold
attr recordingmode vector
attr source transmissionStateChanged
attr title "tx state"
17	688759 9 0 0 0 0 1 0 0 0 0
vector 18 Highway5G.upf.pppIf.queue queueLength:vector ETV
attr autoWarmupFilter false
attr interpolationmode sample-hold
attr recordingmode vector
attr source "warmup(atomic(constant0(packetPushEnded) + count(packetPushStarted) - count(packetPulled) - count(packetRemoved) - count(packetDropped)))"
attr title "queue length"
attr unit pk
18	688768 123401 0 704846 0 18.7430001388 4839 0 1 356 356
18	13356195 154964 704918 1391617 18.7440001388 27.4340002588 5823 0 2 1149 1325
18	26761416 160110 1391807 2073091 27.4360001388 33.9900001388 5930 0 2 1089 1109
18	40419393 161323 2073386 2744645 33.9930001388 39.3260002276 5975 0 1 1137 1137
18	54094381 164781 2744918 3456889 39.3280001388 44.4480001988 6103 0 2 1249 1295
18	67886057 161183 3457165 4159076 44.4500001388 48.7540001388 5970 0 2 1065 1085
18	81725663 155492 4159640 4881600 48.7580001388 53.2280004052 5759 0 3 1195 1517
18	95555656 152656 4881945 5586172 53.2300001388 57.2370001388 5654 0 2 896 922
18	109277807 139319 5586364 6125547 57.2380001388 59.9990002276 5161 0 3 1554 2200
vector 19 Highway5G.upf.pppIf.queue queueBitLength:vector ETV
attr autoWarmupFilter false
attr interpolationmode sample-hold
attr recordingmode vector
attr source "warmup(atomic(constant0(packetPushEnded) + sum(packetLength(packetPushStarted)) - sum(packetLength(packetPulled)) - sum(packetLength(packetRemoved)) - sum(packetLength(packetDropped))))"
attr title "queue bit length"
attr unit b
19	812169 124113 0 704846 0 18.7430001388 4839 0 544 193664 105353216
19	13511159 157174 704918 1391617 18.7440001388 27.4340002588 5823 0 1088 625056 392115200
19	26921526 162278 1391807 2073091 27.4360001388 33.9900001388 5930 0 1088 592416 328193024
19	40580716 163597 2073386 2744645 33.9930001388 39.3260002276 5975 0 544 618528 336479232
19	54259162 167256 2744918 3456889 39.3280001388 44.4480001988 6103 0 1088 679456 383237120
19	68047240 163303 3457165 4159076 44.4500001388 48.7540001388 5970 0 1088 579360 321090560
19	81881155 157721 4159640 4881600 48.7580001388 53.2280004052 5759 0 1632 650080 448934912
19	95708312 154435 4881945 5586172 53.2300001388 57.2370001388 5654 0 1088 487424 272852992
19	109417126 142104 5586364 6125547 57.2380001388 59.9990002276 5161 0 1632 845376 651059200
vector 20 Highway5G.upf.pppIf.ppp transmissionState:vector ETV
attr interpolationmode sample-hold
attr recordingmode vector
attr source transmissionStateChanged
attr title "tx state"
20	936282 228685 0 704847 0 18.7430001988 8957 0 1 4478 4478
20	13668333 257998 704918 1391622 18.7440001388 27.4340003188 9700 0 1 4850 4850
20	27083804 262494 1391807 2073092 27.4360001388 33.9900001988 9722 0 1 4861 4861
20	40744313 261248 2073386 2744649 33.9930001388 39.3260002876 9676 0 1 4838 4838
20	54426418 264600 2744918 3456893 39.3280001388 44.4480002588 9800 0 1 4900 4900
20	68210543 265936 3457165 4159077 44.4500001388 48.7540001988 9850 0 1 4925 4925
20	82038876 261034 4159640 4881608 48.7580001388 53.2280004652 9668 0 1 4834 4834
20	95862747 258332 4881945 5586173 53.2300001388 57.2370001988 9568 0 1 4784 4784
20	109559230 219890 5586364 6125551 57.2380001388 59.9990002876 8146 0 1 4073 4073
vector 21 Highway5G.upf.udp passedUpPk:vector(count) ETV
attr interpolationmode none
attr recordingmode vector(count)
attr source packetSentToUpper
attr title "packets passed up, count"
21	1164967 126674 0 704844 0 18.7430001388 4479 0 4478 10028481 29941701439
21	13926331 143549 704916 1391611 18.7440001388 27.4340002276 4850 4479 9328 33481975 240649824425
21	27346298 150020 1391805 2073089 27.4360001388 33.9900001388 4861 9329 14189 57160499 681722151451
21	41005561 149976 2073384 2744643 33.9930001388 39.3260002276 4838 14190 19027 80351923 1343961530115
21	54691018 151900 2744916 3456884 39.3280001388 44.4480001388 4900 19028 23927 105239750 2270090813550
21	68476479 152668 3457163 4159074 44.4500001388 48.7540001388 4925 23928 28852 129970750 3439883004850
21	82299910 149853 4159638 4881598 48.7580001388 53.2280004052 4834 28853 33686 151156763 4736009630701
21	96121079 148302 4881943 5586170 53.2300001388 57.2370001388 4784 33687 38470 172599544 6236256794664
21	109779120 126235 5586362 6125545 57.2380001388 59.9990002276 4073 38471 42543 164985011 6688678534989
vector 22 Highway5G.upf.udp droppedPkWrongPort:vector(count) ETV
attr interpolationmode none
attr recordingmode vector(count)
attr source packetDropReasonIsNoPortFound(packetDropped)
attr title "packets dropped (wrong port), count"
22	1291641 9 0 0 0 0 1 0 0 0 0
vector 23 Highway5G.upf.udp droppedPkBadChecksum:vector(count) ETV
attr interpolationmode none
attr recordingmode vector(count)
attr source packetDropReasonIsIncorrectlyReceived(packetDropped)
attr title "packets dropped (checksum error), count"
23	1291650 9 0 0 0 0 1 0 0 0 0
vector 24 Highway5G.gNodeB1.pppIf.queue queueLength:vector ETV
attr autoWarmupFilter false
attr interpolationmode sample-hold
attr recordingmode vector
attr source "warmup(atomic(constant0(packetPushEnded) + count(packetPushStarted) - count(packetPulled) - count(packetRemoved) - count(packetDropped)))"
attr title "queue length"
attr unit pk
24	1291659 49844 0 704724 0 18.741 2622 0 1 195 195
24	14069880 61623 704893 1391546 18.744 27.434 2998 0 4 457 509
24	27496318 38378 1391775 2073044 27.436 33.99 1916 0 2 56 58
24	41155537 38637 2073362 2744472 33.993 39.325 1886 0 4 189 225
24	54842918 27944 2745407 3456826 39.332 44.448 1353 0 2 195 257
24	68629147 34452 3458017 4158893 44.456 48.753 1630 0 2 400 532
24	82449763 28702 4159593 4880959 48.758 53.225 1381 0 2 194 230
24	96269381 37367 4882723 5585840 53.235 57.235 1759 0 3 466 616
24	109905355 36189 5587676 6124579 57.246 59.9940001776 1667 0 3 729 1169
vector 25 Highway5G.gNodeB1.pppIf.queue queueBitLength:vector ETV
attr autoWarmupFilter false
attr interpolationmode sample-hold
attr recordingmode vector
attr source "warmup(atomic(constant0(packetPushEnded) + sum(packetLength(packetPushStarted)) - sum(packetLength(packetPulled)) - sum(packetLength(packetRemoved)) - sum(packetLength(packetDropped))))"
attr title "queue bit length"
attr unit b
25	1341503 50234 0 704724 0 18.741 2622 0 832 162240 134983680
25	14131503 62512 704893 1391546 18.744 27.434 2998 0 3328 380224 352342016
25	27534696 38489 1391775 2073044 27.436 33.99 1916 0 1664 46592 40148992
25	41194174 38998 2073362 2744472 33.993 39.325 1886 0 3328 157248 155750400
25	54870862 28303 2745407 3456826 39.332 44.448 1353 0 1664 162240 177901568
25	68663599 35186 3458017 4158893 44.456 48.753 1630 0 1664 332800 368263168
25	82478465 29072 4159593 4880959 48.758 53.225 1381 0 1664 161408 159211520
25	96306748 38224 4882723 5585840 53.235 57.235 1759 0 2496 387712 426409984
25	109941544 37427 5587676 6124579 57.246 59.9940001776 1667 0 2496 606528 809209856
vector 26 Highway5G.gNodeB1.pppIf.ppp transmissionState:vector ETV
attr interpolationmode sample-hold
attr recordingmode vector
attr source transmissionStateChanged
attr title "tx state"
26	1391737 108019 0 704730 0 18.7410000888 4845 0 1 2422 2422
26	14194015 121578 704893 1391595 18.744 27.4340000888 5146 0 1 2573 2573
26	27573185 87617 1391775 2073086 27.436 33.9900000888 3724 0 1 1862 1862
26	41233172 81659 2073362 2744497 33.993 39.3250000888 3434 0 1 1717 1717
26	54899165 58224 2745407 3456877 39.332 44.4480000888 2440 0 1 1220 1220
26	68698785 65866 3458017 4158917 44.456 48.7530000888 2724 0 1 1362 1362
26	82507537 58563 4159593 4881004 48.758 53.2250000888 2446 0 1 1223 1223
26	96344972 69823 4882723 5585858 53.235 57.2350000888 2878 0 1 1439 1439
26	109978971 61977 5587676 6124596 57.246 59.9940002664 2516 0 1 1258 1258
vector 27 Highway5G.gNodeB1.x2ppp[0].queue queueLength:vector ETV
attr autoWarmupFilter false
attr interpolationmode sample-hold
attr recordingmode vector
attr source "warmup(atomic(constant0(packetPushEnded) + count(packetPushStarted) - count(packetPulled) - count(packetRemoved) - count(packetDropped)))"
attr title "queue length"
attr unit pk
27	1499756 162 0 47468 0 4.05001 11 0 0 0 0
27	14315593 98 1157225 1276005 25.00001 26.2500101068 4 0 0 0 0
27	27660802 169 1661877 1980380 30.05001 33.0500101068 7 0 0 0 0
27	41314831 343 2074278 2727990 34.00001 39.2000101068 14 0 1 2 2
27	54957389 98 2837318 3004009 40.00001 41.2500101068 4 0 0 0 0
27	96414795 98 5367300 5579937 56.05001 57.2000101068 4 0 0 0 0
27	110040948 98 5720552 5966126 58.00001 59.2000101068 4 0 0 0 0
vector 28 Highway5G.gNodeB1.x2ppp[0].queue queueBitLength:vector ETV
attr autoWarmupFilter false
attr interpolationmode sample-hold
attr recordingmode vector
attr source "warmup(atomic(constant0(packetPushEnded) + sum(packetLength(packetPushStarted)) - sum(packetLength(packetPulled)) - sum(packetLength(packetRemoved)) - sum(packetLength(packetDropped))))"
attr title "queue bit length"
attr unit b
28	1499918 162 0 47468 0 4.05001 11 0 0 0 0
28	14315691 98 1157225 1276005 25.00001 26.2500101068 4 0 0 0 0
28	27660971 169 1661877 1980380 30.05001 33.0500101068 7 0 0 0 0
28	41315174 347 2074278 2727990 34.00001 39.2000101068 14 0 512 1024 524288
28	54957487 98 2837318 3004009 40.00001 41.2500101068 4 0 0 0 0
28	96414893 98 5367300 5579937 56.05001 57.2000101068 4 0 0 0 0
28	110041046 98 5720552 5966126 58.00001 59.2000101068 4 0 0 0 0
vector 29 Highway5G.gNodeB1.x2ppp[0].ppp transmissionState:vector ETV
attr interpolationmode sample-hold
attr recordingmode vector
attr source transmissionStateChanged
attr title "tx state"
29	1500080 260 0 47470 0 4.0500100568 13 0 1 6 6
29	14315789 206 1157225 1276006 25.00001 26.2500101508 8 0 1 4 4
29	27661140 358 1661877 1980388 30.05001 33.0500101508 14 0 1 7 7
29	41315521 623 2074278 2727991 34.00001 39.2000101508 24 0 1 12 12
29	54957585 206 2837318 3004010 40.00001 41.2500101508 8 0 1 4 4
29	96414991 206 5367300 5579938 56.05001 57.2000101508 8 0 1 4 4
29	110041144 206 5720552 5966127 58.00001 59.2000101508 8 0 1 4 4
vector 30 Highway5G.gNodeB1.pppMEHostIf.queue queueLength:vector ETV
attr autoWarmupFilter false
attr interpolationmode sample-hold
attr recordingmode vector
attr source "warmup(atomic(constant0(packetPushEnded) + count(packetPushStarted) - count(packetPulled) - count(packetRemoved) - count(packetDropped)))"
attr title "queue length"
attr unit pk
30	1500340 45 0 0 0 0 5 0 0 0 0
vector 31 Highway5G.gNodeB1.pppMEHostIf.queue queueBitLength:vector ETV
attr autoWarmupFilter false
attr interpolationmode sample-hold
attr recordingmode vector
attr source "warmup(atomic(constant0(packetPushEnded) + sum(packetLength(packetPushStarted)) - sum(packetLength(packetPulled)) - sum(packetLength(packetRemoved)) - sum(packetLength(packetDropped))))"
attr title "queue bit length"
attr unit b
31	1500385 45 0 0 0 0 5 0 0 0 0
vector 32 Highway5G.gNodeB1.pppMEHostIf.ppp transmissionState:vector ETV
attr interpolationmode sample-hold
attr recordingmode vector
attr source transmissionStateChanged
attr title "tx state"
32	1500430 9 0 0 0 0 1 0 0 0 0
vector 33 Highway5G.gNodeB1.udp passedUpPk:vector(count) ETV
attr interpolationmode none
attr recordingmode vector(count)
attr source packetSentToUpper
attr title "packets passed up, count"
33	1500439 9 0 0 0 0 1 0 0 0 0
vector 34 Highway5G.gNodeB1.udp droppedPkWrongPort:vector(count) ETV
attr interpolationmode none
attr recordingmode vector(count)
attr source packetDropReasonIsNoPortFound(packetDropped)
attr title "packets dropped (wrong port), count"
34	1500448 9 0 0 0 0 1 0 0 0 0
vector 35 Highway5G.gNodeB1.udp droppedPkBadChecksum:vector(count) ETV
attr interpolationmode none
attr recordingmode vector(count)
attr source packetDropReasonIsIncorrectlyReceived(packetDropped)
attr title "packets dropped (checksum error), count"
35	1500457 9 0 0 0 0 1 0 0 0 0
vector 36 Highway5G.gNodeB2.pppIf.queue queueLength:vector ETV
attr autoWarmupFilter false
attr interpolationmode sample-hold
attr recordingmode vector
attr source "warmup(atomic(constant0(packetPushEnded) + count(packetPushStarted) - count(packetPulled) - count(packetRemoved) - count(packetDropped)))"
attr title "queue length"
attr unit pk
36	1500466 40621 0 704836 0 18.743 2170 0 1 109 109
36	14315995 49564 705175 1391596 18.749 27.4340000888 2462 0 2 187 189
36	27661498 69640 1391879 2072661 27.437 33.986 3379 0 2 578 776
36	41316144 83793 2073557 2744633 33.995 39.3260000888 3933 0 4 1338 2004
36	54957791 105324 2744880 3457123 39.328 44.45 4874 0 3 1701 2377
36	68764651 101420 3457160 4159032 44.4500000888 48.754 4695 0 8 2041 3549
36	82566100 99768 4159756 4881889 48.759 53.23 4653 0 8 1591 2389
36	96415197 90901 4882082 5586147 53.231 57.237 4252 0 11 1548 2996
36	110041350 83556 5586318 6125722 57.238 60 3843 0 4 1819 3203
vector 37 Highway5G.gNodeB2.pppIf.queue queueBitLength:vector ETV
attr autoWarmupFilter false
attr interpolationmode sample-hold
attr recordingmode vector
attr source "warmup(atomic(constant0(packetPushEnded) + sum(packetLength(packetPushStarted)) - sum(packetLength(packetPulled)) - sum(packetLength(packetRemoved)) - sum(packetLength(packetDropped))))"
attr title "queue bit length"
attr unit b
37	1541087 40839 0 704836 0 18.743 2170 0 832 90688 75452416
37	14365559 49937 705175 1391596 18.749 27.4340000888 2462 0 1664 155584 130830336
37	27731138 70697 1391879 2072661 27.437 33.986 3379 0 1664 480896 537165824
37	41399937 86137 2073557 2744633 33.995 39.3260000888 3933 0 3328 1113216 1387216896
37	55063115 108388 2744880 3457123 39.328 44.45 4874 0 2496 1415232 1645416448
37	68866071 104826 3457160 4159032 44.4500000888 48.754 4695 0 6656 1698112 2456702976
37	82665868 102606 4159756 4881889 48.759 53.23 4653 0 6656 1323712 1653723136
37	96506098 93474 4882082 5586147 53.231 57.237 4252 0 9152 1287936 2073903104
37	110124906 86530 5586318 6125722 57.238 60 3843 0 3328 1513408 2217193472
vector 38 Highway5G.gNodeB2.pppIf.ppp transmissionState:vector ETV
attr interpolationmode sample-hold
attr recordingmode vector
attr source transmissionStateChanged
attr title "tx state"
38	1581926 91070 0 704841 0 18.7430000888 4113 0 1 2056 2056
38	14415496 106555 705175 1391607 18.749 27.4340001776 4554 0 1 2277 2277
38	27801835 143099 1391879 2072695 27.437 33.9860000888 5998 0 1 2999 2999
38	41486074 151996 2073557 2744639 33.995 39.3260001776 6242 0 1 3121 3121
38	55171503 180957 2744880 3457122 39.328 44.45 7361 0 1 3681 3681
38	68970897 175116 3457160 4159071 44.4500000888 48.7540000888 7125 0 1 3562 3562
38	82768474 176661 4159756 4881889 48.759 53.23 7223 0 1 3612 3612
38	96599572 163251 4881940 5586167 53.2300000888 57.2370000888 6689 0 1 3344 3344
38	110211436 139186 5586318 6125722 57.238 60 5631 0 1 2816 2816
vector 39 Highway5G.gNodeB2.x2ppp[0].queue queueLength:vector ETV
attr autoWarmupFilter false
attr interpolationmode sample-hold
attr recordingmode vector
attr source "warmup(atomic(constant0(packetPushEnded) + count(packetPushStarted) - count(packetPulled) - count(packetRemoved) - count(packetDropped)))"
attr title "queue length"
attr unit pk
39	1672996 162 0 47477 0 4.0500101068 11 0 0 0 0
39	14522051 98 1161465 1271525 25.05001 26.2000101068 4 0 0 0 0
39	27944934 169 1656457 1980378 30.00001 33.0500101068 7 0 0 0 0
39	41638070 343 2074277 2734556 34.00001 39.2500101068 14 0 1 2 2
39	55352460 98 2843965 2997620 40.05001 41.2000101068 4 0 0 0 0
39	96762823 71 5358347 5544053 56.00001 57.00001 3 0 0 0 0
39	110350622 125 5588427 5976013 57.2500101068 59.2500101068 5 0 0 0 0
vector 40 Highway5G.gNodeB2.x2ppp[0].queue queueBitLength:vector ETV
attr autoWarmupFilter false
attr interpolationmode sample-hold
attr recordingmode vector
attr source "warmup(atomic(constant0(packetPushEnded) + sum(packetLength(packetPushStarted)) - sum(packetLength(packetPulled)) - sum(packetLength(packetRemoved)) - sum(packetLength(packetDropped))))"
attr title "queue bit length"
attr unit b
40	1673158 162 0 47477 0 4.0500101068 11 0 0 0 0
40	14522149 98 1161465 1271525 25.05001 26.2000101068 4 0 0 0 0
40	27945103 169 1656457 1980378 30.00001 33.0500101068 7 0 0 0 0
40	41638413 347 2074277 2734556 34.00001 39.2500101068 14 0 512 1024 524288
40	55352558 98 2843965 2997620 40.05001 41.2000101068 4 0 0 0 0
40	96762894 71 5358347 5544053 56.00001 57.00001 3 0 0 0 0
40	110350747 125 5588427 5976013 57.2500101068 59.2500101068 5 0 0 0 0
vector 41 Highway5G.gNodeB2.x2ppp[0].ppp transmissionState:vector ETV
attr interpolationmode sample-hold
attr recordingmode vector
attr source transmissionStateChanged
attr title "tx state"
41	1673320 260 0 47481 0 4.0500101508 13 0 1 6 6
41	14522247 206 1161465 1271526 25.05001 26.2000101508 8 0 1 4 4
41	27945272 358 1656457 1980387 30.00001 33.0500101508 14 0 1 7 7
41	41638760 623 2074277 2734557 34.00001 39.2500101508 24 0 1 12 12
41	55352656 206 2843965 2997621 40.05001 41.2000101508 8 0 1 4 4
41	96762965 152 5358347 5544054 56.00001 57.0000100568 6 0 1 3 3
41	110350872 260 5588427 5976014 57.2500101068 59.2500101508 10 0 1 5 5
vector 42 Highway5G.gNodeB2.pppMEHostIf.queue queueLength:vector ETV
attr autoWarmupFilter false
attr interpolationmode sample-hold
attr recordingmode vector
attr source "warmup(atomic(constant0(packetPushEnded) + count(packetPushStarted) - count(packetPulled) - count(packetRemoved) - count(packetDropped)))"
attr title "queue length"
attr unit pk
42	1673580 45 0 0 0 0 5 0 0 0 0
vector 43 Highway5G.gNodeB2.pppMEHostIf.queue queueBitLength:vector ETV
attr autoWarmupFilter false
attr interpolationmode sample-hold
attr recordingmode vector
attr source "warmup(atomic(constant0(packetPushEnded) + sum(packetLength(packetPushStarted)) - sum(packetLength(packetPulled)) - sum(packetLength(packetRemoved)) - sum(packetLength(packetDropped))))"
attr title "queue bit length"
attr unit b
43	1673625 45 0 0 0 0 5 0 0 0 0
vector 44 Highway5G.gNodeB2.pppMEHostIf.ppp transmissionState:vector ETV
attr interpolationmode sample-hold
attr recordingmode vector
attr source transmissionStateChanged
attr title "tx state"
44	1673670 9 0 0 0 0 1 0 0 0 0
vector 45 Highway5G.gNodeB2.udp passedUpPk:vector(count) ETV
attr interpolationmode none
attr recordingmode vector(count)
attr source packetSentToUpper
attr title "packets passed up, count"
45	1673679 9 0 0 0 0 1 0 0 0 0
vector 46 Highway5G.gNodeB2.udp droppedPkWrongPort:vector(count) ETV
attr interpolationmode none
attr recordingmode vector(count)
attr source packetDropReasonIsNoPortFound(packetDropped)
attr title "packets dropped (wrong port), count"
46	1673688 9 0 0 0 0 1 0 0 0 0
vector 47 Highway5G.gNodeB2.udp droppedPkBadChecksum:vector(count) ETV
attr interpolationmode none
attr recordingmode vector(count)
attr source packetDropReasonIsIncorrectlyReceived(packetDropped)
attr title "packets dropped (checksum error), count"
47	1673697 9 0 0 0 0 1 0 0 0 0
vector 48 Highway5G.gNodeB1.sctp "Throughput of Association 68" ETV
48	1673706 50 56 47484 0 4.0500102008 2 0 0.041481377001671 0.041481377001671 0.0017207046379548
48	14522453 44 1175516 1175516 25.2000102008 25.2000102008 1 0.0013238770685579 0.0013238770685579 0.0013238770685579 1.7526504926535e-06
48	27945630 73 1684142 1980393 30.2500102008 33.0500102008 2 0.011089108910891 0.02 0.031089108910891 0.0005229683364376
48	41639383 117 2101989 2734560 34.2500102008 39.2500102008 3 0.014 0.046666666666667 0.079333333333334 0.0027222222222223
48	55352862 43 2997624 2997624 41.2000102008 41.2000102008 1 0.028717948717949 0.028717948717949 0.028717948717949 0.00082472057856675
48	96763117 44 5403931 5403931 56.2500102008 56.2500102008 1 0.0018604651162791 0.0018604651162791 0.0018604651162791 3.4613304488914e-06
48	108728397 519 5761596 5976017 58.2000102008 59.2500102008 2 0.026666666666667 0.028717948717949 0.055384615384616 0.0015358316896779
vector 49 Highway5G.gNodeB2.sctp "Throughput of Association 69" ETV
49	1673756 50 61 46605 0 4.0000102008 2 0 0.041999892891873 0.041999892891873 0.0017639910029288
49	14522497 44 1180191 1180191 25.2500102008 25.2500102008 1 0.0013176470588235 0.0013176470588235 0.0013176470588235 1.7361937716262e-06
49	27945703 129 1678617 1980394 30.2000102008 33.0500102008 3 0.011313131313131 0.026666666666667 0.053535353535354 0.0010810733598613
49	41639500 129 2101993 2727994 34.2500102576 39.2000102008 3 0.014358974777226 0.046666664457778 0.079692305901671 0.0027324021727123
49	55352905 43 2871048 2871048 40.2500102008 40.2500102008 1 0.026666666666667 0.026666666666667 0.026666666666667 0.00071111111111113
49	96763161 44 5394573 5394573 56.2000102008 56.2000102008 1 0.0035109717868339 0.0035109717868339 0.0035109717868339 1.2326922887944e-05
49	108732112 43 5772179 5772179 58.2500102008 58.2500102008 1 0.027317073170732 0.027317073170732 0.027317073170732 0.00074622248661513
vector 50 Highway5G.gNodeB1.sctp "Throughput of Association 49" ETV
50	1673806 50 64 46594 0 4.0000101068 2 0 0.041999893878868 0.041999893878868 0.0017639910858362
50	14522541 44 1161470 1161470 25.0500101068 25.0500101068 1 0.0020902612826603 0.0020902612826603 0.0020902612826603 4.3691922297887e-06
50	27945832 129 1656461 1975839 30.0000101068 33.0000101068 3 0.017777777777778 0.041904761904762 0.082246642246643 0.0025811971775342
50	41639629 171 2079341 2700883 34.0500101068 39.0000101068 4 0.041904761904762 0.12571428571429 0.25787545787546 0.021633200499136
50	55352948 43 2843970 2843970 40.0500101068 40.0500101068 1 0.041904761904762 0.041904761904762 0.041904761904762 0.0017560090702948
50	96763205 44 5358351 5358351 56.0000101068 56.0000101068 1 0.0055172413793103 0.0055172413793103 0.0055172413793103 3.0439952437574e-05
50	108725597 43 5730292 5730292 58.0500101068 58.0500101068 1 0.042926829268293 0.042926829268293 0.042926829268293 0.0018427126710292
vector 51 Highway5G.gNodeB1.sctp "Fast Recovery State 49:192.168.4.2" ETV
51	1673856 10 64 64 0 0 1 0 0 0 0
vector 52 Highway5G.gNodeB2.sctp "Throughput of Association 53" ETV
52	1673866 50 65 47473 0 4.0500101068 2 0 0.041481377964447 0.041481377964447 0.0017207047178293
52	14522585 44 1157229 1157229 25.0000101068 25.0000101068 1 0.0021002386634845 0.0021002386634845 0.0021002386634845 4.4110024435952e-06
52	27945961 86 1661882 1975840 30.0500101068 33.0000101068 2 0.017425742574257 0.029830508474576 0.047256251048833 0.001193515740116
52	41639800 114 2074301 2707724 34.0000101636 39.0500101068 3 0.04292683045768 0.1319999925024 0.21892682296008 0.021202710793776
52	55352991 43 2971338 2971338 41.0000101068 41.0000101068 1 0.045128205128205 0.045128205128205 0.045128205128205 0.0020365548980933
52	96763249 44 5367305 5367305 56.0500101068 56.0500101068 1 0.0029235880398671 0.0029235880398671 0.0029235880398671 8.547367026854e-06
52	108730051 86 5720556 5936282 58.0000101068 59.0500101068 2 0.041904761904762 0.045128205128205 0.087032967032967 0.0037925639683881
vector 53 Highway5G.gNodeB2.sctp "Fast Recovery State 53:192.168.4.1" ETV
53	1673916 10 65 65 0 0 1 0 0 0 0
vector 54 Highway5G.gNodeB1.x2ppp[0].queue incomingPacketLengths:vector ETV
attr interpolationmode none
attr recordingmode vector
attr source packetLength(packetPushStarted)
attr title "incoming packet lengths"
attr unit b
54	1673926 130 72 47468 0 4.05001 6 288 1376 4224 3788800
54	14522629 106 1157225 1276005 25.00001 26.2500101068 4 384 512 1792 819200
54	27946047 183 1661877 1980380 30.05001 33.0500101068 7 384 512 3200 1490944
54	41639914 313 2074278 2727990 34.00001 39.2000101068 12 384 512 5504 2572288
54	55353034 106 2837318 3004009 40.00001 41.2500101068 4 384 512 1792 819200
54	96763293 106 5367300 5579937 56.05001 57.2000101068 4 384 512 1792 819200
54	110351132 106 5720552 5966126 58.00001 59.2000101068 4 384 512 1792 819200
vector 55 Highway5G.gNodeB1.x2ppp[0].queue queueingTime:vector ETV
attr interpolationmode none
attr recordingmode vector
attr source queueingTime(packetPulled)
attr title "queueing times"
attr unit s
55	1674056 117 72 47468 0 4.05001 6 0 0 0 0
55	14522735 98 1157225 1276005 25.00001 26.2500101068 4 0 0 0 0
55	27946230 169 1661877 1980380 30.05001 33.0500101068 7 0 0 0 0
55	41640227 313 2074278 2727990 34.00001 39.2000101068 12 0 5.68e-08 1.136e-07 6.45248e-15
55	55353140 98 2837318 3004009 40.00001 41.2500101068 4 0 0 0 0
55	96763399 98 5367300 5579937 56.05001 57.2000101068 4 0 0 0 0
55	110351238 98 5720552 5966126 58.00001 59.2000101068 4 0 0 0 0
vector 56 Highway5G.gNodeB1.x2ppp[0].queue outgoingPacketLengths:vector ETV
attr interpolationmode none
attr recordingmode vector
attr source packetLength(packetPulled)
attr title "outgoing packet lengths"
attr unit b
56	1674173 130 72 47468 0 4.05001 6 288 1376 4224 3788800
56	14522833 106 1157225 1276005 25.00001 26.2500101068 4 384 512 1792 819200
56	27946399 183 1661877 1980380 30.05001 33.0500101068 7 384 512 3200 1490944
56	41640540 323 2074278 2727990 34.00001 39.2000101068 12 384 512 5504 2572288
56	55353238 106 2837318 3004009 40.00001 41.2500101068 4 384 512 1792 819200
56	96763497 106 5367300 5579937 56.05001 57.2000101068 4 384 512 1792 819200
56	110351336 106 5720552 5966126 58.00001 59.2000101068 4 384 512 1792 819200
vector 57 Highway5G.gNodeB1.x2ppp[0].ppp rcvdPkFromHl:vector(packetBytes) ETV
attr interpolationmode none
attr recordingmode vector(packetBytes)
attr source packetReceivedFromUpper
attr title "packets received from higher layer, packetBytes"
57	1674303 125 72 47468 0 4.05001 6 36 172 528 59200
57	14522939 102 1157225 1276005 25.00001 26.2500101068 4 48 64 224 12800
57	27946582 176 1661877 1980380 30.05001 33.0500101068 7 48 64 400 23296
57	41640863 311 2074278 2727990 34.00001 39.2000101068 12 48 64 688 40192
57	55353344 102 2837318 3004009 40.00001 41.2500101068 4 48 64 224 12800
57	96763603 102 5367300 5579937 56.05001 57.2000101068 4 48 64 224 12800
57	110351442 102 5720552 5966126 58.00001 59.2000101068 4 48 64 224 12800
vector 58 Highway5G.gNodeB1.x2ppp[0].ppp txPk:vector(packetBytes) ETV
attr interpolationmode none
attr recordingmode vector(packetBytes)
attr source packetSentToLower
attr title "packets transmitted, packetBytes"
58	1674428 125 72 47468 0 4.05001 6 43 179 570 66886
58	14523041 102 1157225 1276005 25.00001 26.2500101068 4 55 71 252 16132
58	27946758 176 1661877 1980380 30.05001 33.0500101068 7 55 71 449 29239
58	41641174 311 2074278 2727990 34.00001 39.2000101068 12 55 71 772 50412
58	55353446 102 2837318 3004009 40.00001 41.2500101068 4 55 71 252 16132
58	96763705 102 5367300 5579937 56.05001 57.2000101068 4 55 71 252 16132
58	110351544 102 5720552 5966126 58.00001 59.2000101068 4 55 71 252 16132
vector 59 Highway5G.gNodeB2.x2ppp[0].queue incomingPacketLengths:vector ETV
attr interpolationmode none
attr recordingmode vector
attr source packetLength(packetPushStarted)
attr title "incoming packet lengths"
attr unit b
59	1674553 130 73 47477 0 4.0500101068 6 288 1376 4224 3788800
59	14523143 106 1161465 1271525 25.05001 26.2000101068 4 384 512 1792 819200
59	27946934 183 1656457 1980378 30.00001 33.0500101068 7 384 512 3200 1490944
59	41641485 313 2074277 2734556 34.00001 39.2500101068 12 384 512 5504 2572288
59	55353548 106 2843965 2997620 40.05001 41.2000101068 4 384 512 1792 819200
59	96763807 77 5358347 5544053 56.00001 57.00001 3 384 512 1408 671744
59	110351646 135 5588427 5976013 57.2500101068 59.2500101068 5 384 512 2176 966656
vector 60 Highway5G.gNodeB2.x2ppp[0].queue queueingTime:vector ETV
attr interpolationmode none
attr recordingmode vector
attr source queueingTime(packetPulled)
attr title "queueing times"
attr unit s
60	1674683 117 73 47477 0 4.0500101068 6 0 0 0 0
60	14523249 98 1161465 1271525 25.05001 26.2000101068 4 0 0 0 0
60	27947117 169 1656457 1980378 30.00001 33.0500101068 7 0 0 0 0
60	41641798 313 2074277 2734556 34.00001 39.2500101068 12 0 5.68e-08 1.136e-07 6.45248e-15
60	55353654 98 2843965 2997620 40.05001 41.2000101068 4 0 0 0 0
60	96763884 71 5358347 5544053 56.00001 57.00001 3 0 0 0 0
60	110351781 125 5588427 5976013 57.2500101068 59.2500101068 5 0 0 0 0
vector 61 Highway5G.gNodeB2.x2ppp[0].queue outgoingPacketLengths:vector ETV
attr interpolationmode none
attr recordingmode vector
attr source packetLength(packetPulled)
attr title "outgoing packet lengths"
attr unit b
61	1674800 130 73 47477 0 4.0500101068 6 288 1376 4224 3788800
61	14523347 106 1161465 1271525 25.05001 26.2000101068 4 384 512 1792 819200
61	27947286 183 1656457 1980378 30.00001 33.0500101068 7 384 512 3200 1490944
61	41642111 323 2074277 2734556 34.00001 39.2500101068 12 384 512 5504 2572288
61	55353752 106 2843965 2997620 40.05001 41.2000101068 4 384 512 1792 819200
61	96763955 77 5358347 5544053 56.00001 57.00001 3 384 512 1408 671744
61	110351906 135 5588427 5976013 57.2500101068 59.2500101068 5 384 512 2176 966656
vector 62 Highway5G.gNodeB2.x2ppp[0].ppp rcvdPkFromHl:vector(packetBytes) ETV
attr interpolationmode none
attr recordingmode vector(packetBytes)
attr source packetReceivedFromUpper
attr title "packets received from higher layer, packetBytes"
62	1674930 125 73 47477 0 4.0500101068 6 36 172 528 59200
62	14523453 102 1161465 1271525 25.05001 26.2000101068 4 48 64 224 12800
62	27947469 176 1656457 1980378 30.00001 33.0500101068 7 48 64 400 23296
62	41642434 311 2074277 2734556 34.00001 39.2500101068 12 48 64 688 40192
62	55353858 102 2843965 2997620 40.05001 41.2000101068 4 48 64 224 12800
62	96764032 74 5358347 5544053 56.00001 57.00001 3 48 64 176 10496
62	110352041 130 5588427 5976013 57.2500101068 59.2500101068 5 48 64 272 15104
vector 63 Highway5G.gNodeB2.x2ppp[0].ppp txPk:vector(packetBytes) ETV
attr interpolationmode none
attr recordingmode vector(packetBytes)
attr source packetSentToLower
attr title "packets transmitted, packetBytes"
63	1675055 125 73 47477 0 4.0500101068 6 43 179 570 66886
63	14523555 102 1161465 1271525 25.05001 26.2000101068 4 55 71 252 16132
63	27947645 176 1656457 1980378 30.00001 33.0500101068 7 55 71 449 29239
63	41642745 311 2074277 2734556 34.00001 39.2500101068 12 55 71 772 50412
63	55353960 102 2843965 2997620 40.05001 41.2000101068 4 55 71 252 16132
63	96764106 74 5358347 5544053 56.00001 57.00001 3 55 71 197 13107
63	110352171 130 5588427 5976013 57.2500101068 59.2500101068 5 55 71 307 19157
vector 64 Highway5G.gNodeB2.x2ppp[0].ppp rxPkOk:vector(packetBytes) ETV
attr interpolationmode none
attr recordingmode vector(packetBytes)
attr source rxPkOk
attr title "packets received OK, packetBytes"
64	1675180 142 78 47471 0.0000001292 4.0500101068 6 43 179 570 66886
64	14523657 112 1157227 1276007 25.0000101068 26.2500102008 4 55 71 252 16132
64	27947821 196 1661880 1980390 30.0500101068 33.0500102008 7 55 71 449 29239
64	41643056 336 2074283 2727992 34.0000101068 39.2000102008 12 55 71 772 50412
64	55354062 112 2837320 3004011 40.0000101068 41.2500102008 4 55 71 252 16132
64	96764180 112 5367303 5579939 56.0500101068 57.2000102008 4 55 71 252 16132
64	110352301 112 5720554 5966128 58.0000101068 59.2000102008 4 55 71 252 16132
vector 65 Highway5G.gNodeB2.x2ppp[0].ppp passedUpPk:vector(packetBytes) ETV
attr interpolationmode none
attr recordingmode vector(packetBytes)
attr source packetSentToUpper
attr title "packets passed to higher layer, packetBytes"
65	1675322 142 78 47471 0.0000001292 4.0500101068 6 36 172 528 59200
65	14523769 112 1157227 1276007 25.0000101068 26.2500102008 4 48 64 224 12800
65	27948017 196 1661880 1980390 30.0500101068 33.0500102008 7 48 64 400 23296
65	41643392 336 2074283 2727992 34.0000101068 39.2000102008 12 48 64 688 40192
65	55354174 112 2837320 3004011 40.0000101068 41.2500102008 4 48 64 224 12800
65	96764292 112 5367303 5579939 56.0500101068 57.2000102008 4 48 64 224 12800
65	110352413 112 5720554 5966128 58.0000101068 59.2000102008 4 48 64 224 12800
vector 66 Highway5G.gNodeB1.x2ppp[0].ppp rxPkOk:vector(packetBytes) ETV
attr interpolationmode none
attr recordingmode vector(packetBytes)
attr source rxPkOk
attr title "packets received OK, packetBytes"
66	1675464 142 79 47482 0.0000001292 4.0500102008 6 43 179 570 66886
66	14523881 112 1161468 1271527 25.0500101068 26.2000102008 4 55 71 252 16132
66	27948213 196 1656459 1980389 30.0000101068 33.0500102008 7 55 71 449 29239
66	41643728 336 2074282 2734558 34.0000101068 39.2500102008 12 55 71 772 50412
66	55354286 112 2843968 2997622 40.0500101068 41.2000102008 4 55 71 252 16132
66	96764404 84 5358349 5544055 56.0000101068 57.0000101068 3 55 71 197 13107
66	110352525 140 5588429 5976015 57.2500102008 59.2500102008 5 55 71 307 19157
vector 67 Highway5G.gNodeB1.x2ppp[0].ppp passedUpPk:vector(packetBytes) ETV
attr interpolationmode none
attr recordingmode vector(packetBytes)
attr source packetSentToUpper
attr title "packets passed to higher layer, packetBytes"
67	1675606 142 79 47482 0.0000001292 4.0500102008 6 36 172 528 59200
67	14523993 112 1161468 1271527 25.0500101068 26.2000102008 4 48 64 224 12800
67	27948409 196 1656459 1980389 30.0000101068 33.0500102008 7 48 64 400 23296
67	41644064 336 2074282 2734558 34.0000101068 39.2500102008 12 48 64 688 40192
67	55354398 112 2843968 2997622 40.0500101068 41.2000102008 4 48 64 224 12800
67	96764488 84 5358349 5544055 56.0000101068 57.0000101068 3 48 64 176 10496
67	110352665 140 5588429 5976015 57.2500102008 59.2500102008 5 48 64 272 15104
vector 68 Highway5G.gNodeB2.sctp "Throughput of Association 69" ETV
68	1675748 21 82 82 0.0000001292 0.0000001292 1 0 0 0 0
vector 69 Highway5G.gNodeB2.sctp "Peer Rwnd 69" ETV
69	1675769 53 82 46605 0.0000001292 4.0000102008 2 65520 65535 131055 8587706625
69	14524105 62 1180191 1276009 25.2500102008 26.2500102008 2 65535 65535 131070 8589672450
69	27948605 93 1678617 1980394 30.2000102008 33.0500102008 3 65520 65535 196590 12882542850
69	41644400 155 2079366 2727994 34.0500102008 39.2000102008 5 65505 65535 327630 21468284100
69	55354510 62 2871048 3004013 40.2500102008 41.2500102008 2 65535 65535 131070 8589672450
69	96764572 62 5394573 5579941 56.2000102008 57.2000102008 2 65535 65535 131070 8589672450
69	108732050 62 5772179 5966130 58.2500102008 59.2000102008 2 65535 65535 131070 8589672450
vector 70 Highway5G.gNodeB2.sctp "Fast Recovery State 70:10.0.0.1" ETV
70	1675822 21 82 82 0.0000001292 0.0000001292 1 0 0 0 0
vector 71 Highway5G.gNodeB2.sctp "Fast Recovery State 70:192.168.2.2" ETV
71	1675843 21 82 82 0.0000001292 0.0000001292 1 0 0 0 0
vector 72 Highway5G.gNodeB2.sctp "Fast Recovery State 70:192.168.4.1" ETV
72	1675864 21 82 82 0.0000001292 0.0000001292 1 0 0 0 0
vector 73 Highway5G.gNodeB2.sctp "Fast Recovery State 70:192.168.5.1" ETV
73	1675885 21 82 82 0.0000001292 0.0000001292 1 0 0 0 0
vector 74 Highway5G.gNodeB1.sctp "Throughput of Association 68" ETV
74	1675906 21 83 83 0.0000001292 0.0000001292 1 0 0 0 0
vector 75 Highway5G.gNodeB1.sctp "Peer Rwnd 68" ETV
75	1675927 53 83 47484 0.0000001292 4.0500102008 2 65520 65535 131055 8587706625
75	14524167 62 1175516 1271529 25.2000102008 26.2000102008 2 65535 65535 131070 8589672450
75	27948698 93 1684142 1980393 30.2500102008 33.0500102008 3 65520 65535 196590 12882542850
75	41644555 155 2074312 2734560 34.0000102576 39.2500102008 5 65520 65535 327645 21470249475
75	55354572 62 2864452 2997624 40.2000102008 41.2000102008 2 65535 65535 131070 8589672450
75	96764634 31 5403931 5403931 56.2500102008 56.2500102008 1 65535 65535 65535 4294836225
75	108728304 93 5588431 5976017 57.2500102008 59.2500102008 3 65535 65535 196605 12884508675
vector 76 Highway5G.gNodeB1.sctp "Fast Recovery State 71:10.0.0.2" ETV
76	1675980 21 83 83 0.0000001292 0.0000001292 1 0 0 0 0
vector 77 Highway5G.gNodeB1.sctp "Fast Recovery State 71:192.168.3.2" ETV
77	1676001 21 83 83 0.0000001292 0.0000001292 1 0 0 0 0
vector 78 Highway5G.gNodeB1.sctp "Fast Recovery State 71:192.168.4.2" ETV
78	1676022 21 83 83 0.0000001292 0.0000001292 1 0 0 0 0
vector 79 Highway5G.gNodeB1.sctp "Fast Recovery State 71:192.168.6.1" ETV
79	1676043 21 83 83 0.0000001292 0.0000001292 1 0 0 0 0
vector 80 Highway5G.gNodeB1.sctp "Peer Rwnd 49" ETV
80	1676064 25 94 94 0.0000003224 0.0000003224 1 65535 65535 65535 4294836225
vector 81 Highway5G.gNodeB1.sctp "Fast Recovery State 49:10.0.0.2" ETV
81	1676089 21 94 94 0.0000003224 0.0000003224 1 0 0 0 0
vector 82 Highway5G.gNodeB1.sctp "Fast Recovery State 49:192.168.3.2" ETV
82	1676110 21 94 94 0.0000003224 0.0000003224 1 0 0 0 0
vector 83 Highway5G.gNodeB1.sctp "Fast Recovery State 49:192.168.6.1" ETV
83	1676131 21 94 94 0.0000003224 0.0000003224 1 0 0 0 0
vector 84 Highway5G.gNodeB2.sctp "Peer Rwnd 53" ETV
84	1676152 25 95 95 0.0000003224 0.0000003224 1 65535 65535 65535 4294836225
vector 85 Highway5G.gNodeB2.sctp "Fast Recovery State 53:10.0.0.1" ETV
85	1676177 21 95 95 0.0000003224 0.0000003224 1 0 0 0 0
vector 86 Highway5G.gNodeB2.sctp "Fast Recovery State 53:192.168.2.2" ETV
86	1676198 21 95 95 0.0000003224 0.0000003224 1 0 0 0 0
vector 87 Highway5G.gNodeB2.sctp "Fast Recovery State 53:192.168.5.1" ETV
87	1676219 21 95 95 0.0000003224 0.0000003224 1 0 0 0 0
vector 88 Highway5G.gNodeB2.sctp "Slow Start Threshold 70:10.0.0.1" ETV
88	1676240 26 106 106 0.0000004708 0.0000004708 1 65535 65535 65535 4294836225
vector 89 Highway5G.gNodeB2.sctp "Congestion Window 70:10.0.0.1" ETV
89	1676266 25 106 106 0.0000004708 0.0000004708 1 4380 4380 4380 19184400
vector 90 Highway5G.gNodeB2.sctp "Bandwidth 70:10.0.0.1" ETV
90	1676291 27 106 106 0.0000004708 0.0000004708 1 0.1825 0.1825 0.1825 0.03330625
vector 91 Highway5G.gNodeB2.sctp "RTO 70:10.0.0.1" ETV
91	1676318 22 106 106 0.0000004708 0.0000004708 1 3 3 3 9
vector 92 Highway5G.gNodeB2.sctp "Slow Start Threshold 70:192.168.2.2" ETV
92	1676340 26 106 106 0.0000004708 0.0000004708 1 65535 65535 65535 4294836225
vector 93 Highway5G.gNodeB2.sctp "Congestion Window 70:192.168.2.2" ETV
93	1676366 25 106 106 0.0000004708 0.0000004708 1 8940 8940 8940 79923600
vector 94 Highway5G.gNodeB2.sctp "Bandwidth 70:192.168.2.2" ETV
94	1676391 27 106 106 0.0000004708 0.0000004708 1 0.3725 0.3725 0.3725 0.13875625
vector 95 Highway5G.gNodeB2.sctp "RTO 70:192.168.2.2" ETV
95	1676418 22 106 106 0.0000004708 0.0000004708 1 3 3 3 9
vector 96 Highway5G.gNodeB2.sctp "Slow Start Threshold 70:192.168.4.1" ETV
96	1676440 50 106 143749 0.0000004708 7.00001 2 65535 65535 131070 8589672450
96	14524229 52 1258225 1351186 26.05001 27.05001 2 65535 65535 131070 8589672450
96	27948791 52 1769909 1881355 31.00001 32.05001 2 65535 65535 131070 8589672450
96	41644710 78 2196968 2571685 35.05001 38.05001 3 65535 65535 196605 12884508675
96	55354634 78 2837312 3109902 40.00001 42.05001 3 65535 65535 196605 12884508675
96	96764665 26 5544047 5544047 57.00001 57.00001 1 65535 65535 65535 4294836225
96	108730473 26 5720546 5720546 58.00001 58.00001 1 65535 65535 65535 4294836225
vector 97 Highway5G.gNodeB2.sctp "Congestion Window 70:192.168.4.1" ETV
97	1676490 48 106 143749 0.0000004708 7.00001 2 8940 8940 17880 159847200
97	14524281 50 1258225 1351186 26.05001 27.05001 2 8940 8940 17880 159847200
97	27948843 50 1769909 1881355 31.00001 32.05001 2 8940 8940 17880 159847200
97	41644788 75 2196968 2571685 35.05001 38.05001 3 8940 8940 26820 239770800
97	55354712 75 2837312 3109902 40.00001 42.05001 3 8940 8940 26820 239770800
97	96764691 25 5544047 5544047 57.00001 57.00001 1 8940 8940 8940 79923600
97	108730499 25 5720546 5720546 58.00001 58.00001 1 8940 8940 8940 79923600
vector 98 Highway5G.gNodeB2.sctp "Bandwidth 70:192.168.4.1" ETV
98	1676538 49 106 143749 0.0000004708 7.00001 2 0.3725 inf inf inf
98	14524331 51 1258225 1351186 26.05001 27.05001 2 23.84 44.7 68.54 2566.4356
98	27948893 72 1769909 1881355 31.00001 32.05001 2 13.504531722054 16.931818181818 30.436349903872 469.05884397411
98	41644863 108 2196968 2571685 35.05001 38.05001 3 11.716906946265 13.903576982893 39.023782279983 510.24376798789
98	55354787 107 2837312 3109902 40.00001 42.05001 3 9.1692307692308 11.40306122449 30.662585447446 315.91862017116
98	96764716 36 5544047 5544047 57.00001 57.00001 1 8.4900284900285 8.4900284900285 8.4900284900285 72.080583761496
98	108730524 36 5720546 5720546 58.00001 58.00001 1 7.9750223015165 7.9750223015165 7.9750223015165 63.600980709686
vector 99 Highway5G.gNodeB2.sctp "RTO 70:192.168.4.1" ETV
99	1676587 46 106 46605 0.0000004708 4.0000102008 2 1 3 4 10
99	14524382 54 1180191 1276009 25.2500102008 26.2500102008 2 1 1 2 2
99	27948965 81 1678617 1980394 30.2000102008 33.0500102008 3 1 1 3 3
99	41644971 135 2079366 2727994 34.0500102008 39.2000102008 5 1 1 5 5
99	55354894 54 2871048 3004013 40.2500102008 41.2500102008 2 1 1 2 2
99	96764752 54 5394573 5579941 56.2000102008 57.2000102008 2 1 1 2 2
99	108730560 54 5772179 5966130 58.2500102008 59.2000102008 2 1 1 2 2
vector 100 Highway5G.gNodeB2.sctp "Slow Start Threshold 70:192.168.5.1" ETV
100	1676633 27 106 106 0.0000004708 0.0000004708 1 65535 65535 65535 4294836225
vector 101 Highway5G.gNodeB2.sctp "Congestion Window 70:192.168.5.1" ETV
101	1676660 26 106 106 0.0000004708 0.0000004708 1 8940 8940 8940 79923600
vector 102 Highway5G.gNodeB2.sctp "Bandwidth 70:192.168.5.1" ETV
102	1676686 28 106 106 0.0000004708 0.0000004708 1 0.3725 0.3725 0.3725 0.13875625
vector 103 Highway5G.gNodeB2.sctp "RTO 70:192.168.5.1" ETV
103	1676714 23 106 106 0.0000004708 0.0000004708 1 3 3 3 9
vector 104 Highway5G.gNodeB1.sctp "Slow Start Threshold 71:10.0.0.2" ETV
104	1676737 27 107 107 0.0000004708 0.0000004708 1 65535 65535 65535 4294836225
vector 105 Highway5G.gNodeB1.sctp "Congestion Window 71:10.0.0.2" ETV
105	1676764 26 107 107 0.0000004708 0.0000004708 1 4380 4380 4380 19184400
vector 106 Highway5G.gNodeB1.sctp "Bandwidth 71:10.0.0.2" ETV
106	1676790 28 107 107 0.0000004708 0.0000004708 1 0.1825 0.1825 0.1825 0.03330625
vector 107 Highway5G.gNodeB1.sctp "RTO 71:10.0.0.2" ETV
107	1676818 23 107 107 0.0000004708 0.0000004708 1 3 3 3 9
vector 108 Highway5G.gNodeB1.sctp "Slow Start Threshold 71:192.168.3.2" ETV
108	1676841 27 107 107 0.0000004708 0.0000004708 1 65535 65535 65535 4294836225
vector 109 Highway5G.gNodeB1.sctp "Congestion Window 71:192.168.3.2" ETV
109	1676868 26 107 107 0.0000004708 0.0000004708 1 8940 8940 8940 79923600
vector 110 Highway5G.gNodeB1.sctp "Bandwidth 71:192.168.3.2" ETV
110	1676894 28 107 107 0.0000004708 0.0000004708 1 0.3725 0.3725 0.3725 0.13875625
vector 111 Highway5G.gNodeB1.sctp "RTO 71:192.168.3.2" ETV
111	1676922 23 107 107 0.0000004708 0.0000004708 1 3 3 3 9
vector 112 Highway5G.gNodeB1.sctp "Slow Start Threshold 71:192.168.4.2" ETV
112	1676945 52 107 145763 0.0000004708 7.05001 2 65535 65535 131070 8589672450
112	14524436 54 1253742 1346146 26.00001 27.00001 2 65535 65535 131070 8589672450
112	27949046 27 1876453 1876453 32.00001 32.00001 1 65535 65535 65535 4294836225
112	41645106 54 2196967 2565408 35.05001 38.00001 2 65535 65535 131070 8589672450
112	55354948 54 2971328 3103082 41.00001 42.00001 2 65535 65535 131070 8589672450
112	96764806 27 5553213 5553213 57.05001 57.05001 1 65535 65535 65535 4294836225
112	108726144 27 5926132 5926132 59.00001 59.00001 1 65535 65535 65535 4294836225
vector 113 Highway5G.gNodeB1.sctp "Congestion Window 71:192.168.4.2" ETV
113	1676997 50 107 145763 0.0000004708 7.05001 2 8940 8940 17880 159847200
113	14524490 52 1253742 1346146 26.00001 27.00001 2 8940 8940 17880 159847200
113	27949073 26 1876453 1876453 32.00001 32.00001 1 8940 8940 8940 79923600
113	41645160 52 2196967 2565408 35.05001 38.00001 2 8940 8940 17880 159847200
113	55355002 52 2971328 3103082 41.00001 42.00001 2 8940 8940 17880 159847200
113	96764833 26 5553213 5553213 57.05001 57.05001 1 8940 8940 8940 79923600
113	108726171 26 5926132 5926132 59.00001 59.00001 1 8940 8940 8940 79923600
vector 114 Highway5G.gNodeB1.sctp "Bandwidth 71:192.168.4.2" ETV
114	1677047 51 107 145763 0.0000004708 7.05001 2 0.3725 inf inf inf
114	14524542 53 1253742 1346146 26.00001 27.00001 2 23.84 44.7 68.54 2566.4356
114	27949099 37 1876453 1876453 32.00001 32.00001 1 13.504531722054 13.504531722054 13.504531722054 182.37237703196
114	41645212 74 2196967 2565408 35.05001 38.00001 2 13.403298350825 13.903576982893 27.306875333718 372.95785960046
114	55355054 74 2971328 3103082 41.00001 42.00001 2 9.1692307692308 10.090293453725 19.259524222956 185.88881488169
114	96764859 37 5553213 5553213 57.05001 57.05001 1 8.4900284900285 8.4900284900285 8.4900284900285 72.080583761496
114	108726197 37 5926132 5926132 59.00001 59.00001 1 7.5698560541914 7.5698560541914 7.5698560541914 57.302720681178
vector 115 Highway5G.gNodeB1.sctp "RTO 71:192.168.4.2" ETV
115	1677098 48 107 47484 0.0000004708 4.0500102008 2 1 3 4 10
115	14524595 56 1175516 1271529 25.2000102008 26.2000102008 2 1 1 2 2
115	27949136 84 1684142 1980393 30.2500102008 33.0500102008 3 1 1 3 3
115	41645286 140 2074312 2734560 34.0000102576 39.2500102008 5 1 1 5 5
115	55355128 56 2864452 2997624 40.2000102008 41.2000102008 2 1 1 2 2
115	96764896 28 5403931 5403931 56.2500102008 56.2500102008 1 1 1 1 1
115	108726234 84 5588431 5976017 57.2500102008 59.2500102008 3 1 1 3 3
vector 116 Highway5G.gNodeB1.sctp "Slow Start Threshold 71:192.168.6.1" ETV
116	1677146 27 107 107 0.0000004708 0.0000004708 1 65535 65535 65535 4294836225
vector 117 Highway5G.gNodeB1.sctp "Congestion Window 71:192.168.6.1" ETV
117	1677173 26 107 107 0.0000004708 0.0000004708 1 8940 8940 8940 79923600
vector 118 Highway5G.gNodeB1.sctp "Bandwidth 71:192.168.6.1" ETV
118	1677199 28 107 107 0.0000004708 0.0000004708 1 0.3725 0.3725 0.3725 0.13875625
vector 119 Highway5G.gNodeB1.sctp "RTO 71:192.168.6.1" ETV
119	1677227 23 107 107 0.0000004708 0.0000004708 1 3 3 3 9
vector 120 Highway5G.gNodeB1.sctp "Slow Start Threshold 49:10.0.0.2" ETV
120	1677250 27 124 124 0.0000005552 0.0000005552 1 65535 65535 65535 4294836225
vector 121 Highway5G.gNodeB1.sctp "Congestion Window 49:10.0.0.2" ETV
121	1677277 26 124 124 0.0000005552 0.0000005552 1 4380 4380 4380 19184400
vector 122 Highway5G.gNodeB1.sctp "Bandwidth 49:10.0.0.2" ETV
122	1677303 28 124 124 0.0000005552 0.0000005552 1 0.1825 0.1825 0.1825 0.03330625
vector 123 Highway5G.gNodeB1.sctp "RTO 49:10.0.0.2" ETV
123	1677331 23 124 124 0.0000005552 0.0000005552 1 3 3 3 9
vector 124 Highway5G.gNodeB1.sctp "Slow Start Threshold 49:192.168.3.2" ETV
124	1677354 27 124 124 0.0000005552 0.0000005552 1 65535 65535 65535 4294836225
vector 125 Highway5G.gNodeB1.sctp "Congestion Window 49:192.168.3.2" ETV
125	1677381 26 124 124 0.0000005552 0.0000005552 1 8940 8940 8940 79923600
vector 126 Highway5G.gNodeB1.sctp "Bandwidth 49:192.168.3.2" ETV
126	1677407 28 124 124 0.0000005552 0.0000005552 1 0.3725 0.3725 0.3725 0.13875625
vector 127 Highway5G.gNodeB1.sctp "RTO 49:192.168.3.2" ETV
127	1677435 23 124 124 0.0000005552 0.0000005552 1 3 3 3 9
vector 128 Highway5G.gNodeB1.sctp "Slow Start Threshold 49:192.168.4.2" ETV
128	1677458 27 124 124 0.0000005552 0.0000005552 1 65535 65535 65535 4294836225
vector 129 Highway5G.gNodeB1.sctp "Congestion Window 49:192.168.4.2" ETV
129	1677485 26 124 124 0.0000005552 0.0000005552 1 8940 8940 8940 79923600
vector 130 Highway5G.gNodeB1.sctp "Bandwidth 49:192.168.4.2" ETV
130	1677511 28 124 124 0.0000005552 0.0000005552 1 0.3725 0.3725 0.3725 0.13875625
vector 131 Highway5G.gNodeB1.sctp "RTO 49:192.168.4.2" ETV
131	1677539 23 124 124 0.0000005552 0.0000005552 1 3 3 3 9
vector 132 Highway5G.gNodeB1.sctp "Slow Start Threshold 49:192.168.6.1" ETV
132	1677562 27 124 124 0.0000005552 0.0000005552 1 65535 65535 65535 4294836225
vector 133 Highway5G.gNodeB1.sctp "Congestion Window 49:192.168.6.1" ETV
133	1677589 26 124 124 0.0000005552 0.0000005552 1 8940 8940 8940 79923600
vector 134 Highway5G.gNodeB1.sctp "Bandwidth 49:192.168.6.1" ETV
134	1677615 28 124 124 0.0000005552 0.0000005552 1 0.3725 0.3725 0.3725 0.13875625
vector 135 Highway5G.gNodeB1.sctp "RTO 49:192.168.6.1" ETV
135	1677643 23 124 124 0.0000005552 0.0000005552 1 3 3 3 9
vector 136 Highway5G.gNodeB2.sctp "Slow Start Threshold 53:10.0.0.1" ETV
136	1677666 27 125 125 0.0000005552 0.0000005552 1 65535 65535 65535 4294836225
vector 137 Highway5G.gNodeB2.sctp "Congestion Window 53:10.0.0.1" ETV
137	1677693 26 125 125 0.0000005552 0.0000005552 1 4380 4380 4380 19184400
vector 138 Highway5G.gNodeB2.sctp "Bandwidth 53:10.0.0.1" ETV
138	1677719 28 125 125 0.0000005552 0.0000005552 1 0.1825 0.1825 0.1825 0.03330625
vector 139 Highway5G.gNodeB2.sctp "RTO 53:10.0.0.1" ETV
139	1677747 23 125 125 0.0000005552 0.0000005552 1 3 3 3 9
vector 140 Highway5G.gNodeB2.sctp "Slow Start Threshold 53:192.168.2.2" ETV
140	1677770 27 125 125 0.0000005552 0.0000005552 1 65535 65535 65535 4294836225
vector 141 Highway5G.gNodeB2.sctp "Congestion Window 53:192.168.2.2" ETV
141	1677797 26 125 125 0.0000005552 0.0000005552 1 8940 8940 8940 79923600
vector 142 Highway5G.gNodeB2.sctp "Bandwidth 53:192.168.2.2" ETV
142	1677823 28 125 125 0.0000005552 0.0000005552 1 0.3725 0.3725 0.3725 0.13875625
vector 143 Highway5G.gNodeB2.sctp "RTO 53:192.168.2.2" ETV
143	1677851 23 125 125 0.0000005552 0.0000005552 1 3 3 3 9
vector 144 Highway5G.gNodeB2.sctp "Slow Start Threshold 53:192.168.4.1" ETV
144	1677874 27 125 125 0.0000005552 0.0000005552 1 65535 65535 65535 4294836225
vector 145 Highway5G.gNodeB2.sctp "Congestion Window 53:192.168.4.1" ETV
145	1677901 26 125 125 0.0000005552 0.0000005552 1 8940 8940 8940 79923600
vector 146 Highway5G.gNodeB2.sctp "Bandwidth 53:192.168.4.1" ETV
146	1677927 28 125 125 0.0000005552 0.0000005552 1 0.3725 0.3725 0.3725 0.13875625
vector 147 Highway5G.gNodeB2.sctp "RTO 53:192.168.4.1" ETV
147	1677955 23 125 125 0.0000005552 0.0000005552 1 3 3 3 9
vector 148 Highway5G.gNodeB2.sctp "Slow Start Threshold 53:192.168.5.1" ETV
148	1677978 27 125 125 0.0000005552 0.0000005552 1 65535 65535 65535 4294836225
vector 149 Highway5G.gNodeB2.sctp "Congestion Window 53:192.168.5.1" ETV
149	1678005 26 125 125 0.0000005552 0.0000005552 1 8940 8940 8940 79923600
vector 150 Highway5G.gNodeB2.sctp "Bandwidth 53:192.168.5.1" ETV
150	1678031 28 125 125 0.0000005552 0.0000005552 1 0.3725 0.3725 0.3725 0.13875625
vector 151 Highway5G.gNodeB2.sctp "RTO 53:192.168.5.1" ETV
151	1678059 23 125 125 0.0000005552 0.0000005552 1 3 3 3 9
vector 152 Highway5G.gNodeB1.cellularNic.mac avgServedBlocksUl:vector ETV
attr recordingmode vector
attr source avgServedBlocksUl
attr title "Avg Served Blocks Ul"
attr unit blocks
152	1678082 354980 128 704820 0.001 18.743 18743 0 4 3395 4827
152	14524651 177183 704883 1391536 18.744 27.434 8691 0 12 4747 21739
152	27949220 136985 1391694 2073265 27.435 33.992 6558 0 5 2827 4543
152	41645426 111415 2073352 2744577 33.993 39.326 5334 0 5 2417 4059
152	55355184 107030 2744741 3457101 39.327 44.45 5124 0 4 1549 2393
152	69146013 89987 3457292 4159583 44.451 48.758 4308 0 3 1603 2381
152	82945135 93409 4159736 4881873 48.759 53.23 4472 0 4 1613 2593
152	96764924 83699 4882058 5586136 53.231 57.237 4007 0 4 2023 3459
152	110352805 57712 5586304 6125709 57.238 60 2763 0 4 1692 3684
vector 153 Highway5G.gNodeB1.cellularNic.mac avgServedBlocksDl:vector ETV
attr recordingmode vector
attr source avgServedBlocksDl
attr title "Avg Served Blocks Dl"
attr unit blocks
153	2033062 354980 128 704820 0.001 18.743 18743 0 0 0 0
153	14701834 177059 704883 1391536 18.744 27.434 8691 0 0 0 0
153	28086205 136985 1391694 2073265 27.435 33.992 6558 0 0 0 0
153	41756841 111415 2073352 2744577 33.993 39.326 5334 0 0 0 0
153	55462214 107030 2744741 3457101 39.327 44.45 5124 0 0 0 0
153	69236000 89987 3457292 4159583 44.451 48.758 4308 0 0 0 0
153	83038544 93409 4159736 4881873 48.759 53.23 4472 0 0 0 0
153	96848623 83699 4882058 5586136 53.231 57.237 4007 0 0 0 0
153	110410517 57712 5586304 6125709 57.238 60 2763 0 0 0 0
vector 154 Highway5G.gNodeB2.cellularNic.mac avgServedBlocksUl:vector ETV
attr recordingmode vector
attr source avgServedBlocksUl
attr title "Avg Served Blocks Ul"
attr unit blocks
154	2388042 355151 129 704825 0.001 18.743 18743 0 12 4460 23128
154	14878893 177098 704894 1391547 18.744 27.434 8691 0 25 4085 13229
154	28223190 137097 1391696 2073266 27.435 33.992 6558 0 15 5635 23721
154	41868256 111513 2073363 2744579 33.993 39.326 5334 0 12 6372 25140
154	55569244 107072 2744743 3457103 39.327 44.45 5124 0 12 6459 21343
154	69325987 90172 3457293 4159463 44.451 48.757 4307 0 25 8724 65282
154	83131953 93579 4159594 4881874 48.758 53.23 4473 0 13 7658 35768
154	96932322 83783 4882061 5586137 53.231 57.237 4007 0 17 6662 27416
154	110468229 57713 5586305 6125711 57.238 60 2763 0 10 4339 12409
vector 155 Highway5G.gNodeB2.cellularNic.mac avgServedBlocksDl:vector ETV
attr recordingmode vector
attr source avgServedBlocksDl
attr title "Avg Served Blocks Dl"
attr unit blocks
155	2743193 354980 129 704825 0.001 18.743 18743 0 0 0 0
155	15055991 177059 704894 1391547 18.744 27.434 8691 0 0 0 0
155	28360287 136985 1391696 2073266 27.435 33.992 6558 0 0 0 0
155	41979769 111415 2073363 2744579 33.993 39.326 5334 0 0 0 0
155	55676316 107030 2744743 3457103 39.327 44.45 5124 0 0 0 0
155	69416159 89966 3457293 4159463 44.451 48.757 4307 0 0 0 0
155	83225532 93430 4159594 4881874 48.758 53.23 4473 0 0 0 0
155	97016105 83699 4882061 5586137 53.231 57.237 4007 0 0 0 0
155	110525942 57712 5586305 6125711 57.238 60 2763 0 0 0 0
vector 156 Highway5G.car[0].udp passedUpPk:vector(count) ETV
attr interpolationmode none
attr recordingmode vector(count)
attr source packetSentToUpper
attr title "packets passed up, count"
156	3098173 15 4542 4542 1.1 1.1 1 0 0 0 0
vector 157 Highway5G.car[0].udp droppedPkWrongPort:vector(count) ETV
attr interpolationmode none
attr recordingmode vector(count)
attr source packetDropReasonIsNoPortFound(packetDropped)
attr title "packets dropped (wrong port), count"
157	3098188 15 4542 4542 1.1 1.1 1 0 0 0 0
vector 158 Highway5G.car[0].udp droppedPkBadChecksum:vector(count) ETV
attr interpolationmode none
attr recordingmode vector(count)
attr source packetDropReasonIsIncorrectlyReceived(packetDropped)
attr title "packets dropped (checksum error), count"
158	3098203 15 4542 4542 1.1 1.1 1 0 0 0 0
vector 159 Highway5G.car[0].cellularNic.phy servingCell:vector ETV
attr recordingmode vector
attr source servingCell
attr title "ID of the serving eNodeB for the UE"
attr unit ""
159	3098218 15 4542 4542 1.1 1.1 1 0 0 0 0
vector 160 Highway5G.car[0].cellularNic.nrChannelModel[0] distance:vector ETV
attr recordingmode vector
attr source distance
attr title "distance between UE and serving base station"
attr unit meters
160	3098233 1051 4542 661654 1.1 18 36 474.19604006593 827.3031653993 22737.465893145 14822482.219473
160	15233050 547 719052 1346109 19 27 18 441.78568433694 944.47740807952 12114.271809408 9028909.6958774
160	28497272 371 1447819 1975763 28 33 12 438.34387106681 976.13583009165 8459.9277447856 6814931.6093937
160	42091184 372 2074129 2700806 34 39 12 438.33700706869 984.68401230431 8502.2282444124 6899386.430302
160	55783346 309 2837200 3388903 40 44 10 439.10906433138 1027.2347377055 7231.2192004594 6035322.7480035
160	69506125 246 3536628 4030441 45 48 8 440.83454319354 1080.4025824734 6014.6408263245 5284037.2036675
160	83318962 310 4197450 4843104 49 53 10 448.85127209978 1125.2247369064 7816.4647254979 7186290.0261982
160	97099804 248 5009113 5543927 54 57 8 466.97505561696 1171.3680944418 6529.5139376014 6236378.5180866
160	110583654 184 5720367 6125850 58 60 6 502.5314025792 1209.6669680219 5127.1905122466 5085407.8556129
vector 161 Highway5G.car[0].cellularNic.nrPhy servingCell:vector ETV
attr recordingmode vector
attr source servingCell
attr title "ID of the serving eNodeB for the UE"
attr unit ""
161	3099284 15 4542 4542 1.1 1.1 1 2 2 2 4
vector 162 Highway5G.car[0].app[0] voIPGeneratedThroughput:vector ETV
attr recordingmode vector
attr source voIPGeneratedThroughput
attr title "Throughput generated by the application"
attr unit Bps
162	3099299 17114 4546 704324 1.1 18.734036150424 429 36.363636363636 1194.0298507463 353244.93900659 301909603.52661
162	15233597 13637 705459 1390994 18.754036150424 27.428564516419 313 871.06374423667 1082.0836060244 306077.76912482 300351143.76654
162	28497643 10622 1393081 2073197 27.448564516419 33.991750534428 242 1082.7524325442 1157.9280084483 272015.55562415 305832877.65746
162	42091556 11675 2075401 2742661 34.011750534428 39.311750534428 266 1158.4231737828 1271.8843429832 323956.09161623 394826387.80083
162	55783655 11236 2745319 3454424 39.331750534428 44.431750534428 256 1272.2545861822 1355.7872304249 336821.97213016 443310050.59838
162	69506371 6102 3457308 4158000 44.451750534428 48.747225586068 139 1322.8726809741 1361.2501023171 186425.249321 250046278.81723
162	83319272 5480 4161056 4879966 48.767225586068 53.219472685096 125 1304.3620164858 1350.6196922371 164648.21991554 216882229.62781
162	97100052 5579 4883487 5585889 53.239472685096 57.235979130552 127 1300.1593957725 1334.8395647778 167118.9736527 219923255.66204
162	110583838 5321 5589280 6125581 57.255979130552 59.99987279468 122 1325.9750536602 1346.2976505266 163224.69983639 218383784.18805
vector 163 Highway5G.car[0].udp packetSent:vector(packetBytes) ETV
attr interpolationmode none
attr recordingmode vector(packetBytes)
attr source packetSent
attr title "packets sent, packetBytes"
163	3116413 11722 4547 704325 1.1 18.734036150424 429 48 48 20592 988416
163	15247234 9599 705460 1390995 18.754036150424 27.428564516419 313 48 48 15024 721152
163	28508265 7502 1393082 2073198 27.448564516419 33.991750534428 242 48 48 11616 557568
163	42103231 8246 2075402 2742662 34.011750534428 39.311750534428 266 48 48 12768 612864
163	55794891 7936 2745320 3454425 39.331750534428 44.431750534428 256 48 48 12288 589824
163	69512473 4309 3457309 4158001 44.451750534428 48.747225586068 139 48 48 6672 320256
163	83324752 3875 4161057 4879967 48.767225586068 53.219472685096 125 48 48 6000 288000
163	97105631 3937 4883488 5585890 53.239472685096 57.235979130552 127 48 48 6096 292608
163	110589159 3750 5589281 6125582 57.255979130552 59.99987279468 122 48 48 5856 281088
vector 164 Highway5G.car[0].cellularNic.pdcpRrc receivedPacketFromUpperLayer:vector(packetBytes) ETV
attr interpolationmode none
attr recordingmode vector(packetBytes)
attr source receivedPacketFromUpperLayer
164	3128135 11722 4550 704328 1.1 18.734036150424 429 68 68 29172 1983696
164	15256833 9599 705463 1390998 18.754036150424 27.428564516419 313 68 68 21284 1447312
164	28515767 7502 1393085 2073201 27.448564516419 33.991750534428 242 68 68 16456 1119008
164	42111477 8246 2075405 2742665 34.011750534428 39.311750534428 266 68 68 18088 1229984
164	55802827 7936 2745323 3454428 39.331750534428 44.431750534428 256 68 68 17408 1183744
164	69516782 4309 3457312 4158004 44.451750534428 48.747225586068 139 68 68 9452 642736
164	83328627 3875 4161060 4879970 48.767225586068 53.219472685096 125 68 68 8500 578000
164	97109568 3937 4883491 5585893 53.239472685096 57.235979130552 127 68 68 8636 587248
164	110592909 3750 5589284 6125585 57.255979130552 59.99987279468 122 68 68 8296 564128
vector 165 Highway5G.car[0].cellularNic.pdcpRrc sentPacketToLowerLayer:vector(packetBytes) ETV
attr interpolationmode none
attr recordingmode vector(packetBytes)
attr source sentPacketToLowerLayer
165	3139857 11722 4550 704328 1.1 18.734036150424 429 69 69 29601 2042469
165	15266432 9599 705463 1390998 18.754036150424 27.428564516419 313 69 69 21597 1490193
165	28523269 7502 1393085 2073201 27.448564516419 33.991750534428 242 69 69 16698 1152162
165	42119723 8246 2075405 2742665 34.011750534428 39.311750534428 266 69 69 18354 1266426
165	55810763 7936 2745323 3454428 39.331750534428 44.431750534428 256 69 69 17664 1218816
165	69521091 4309 3457312 4158004 44.451750534428 48.747225586068 139 69 69 9591 661779
165	83332502 3875 4161060 4879970 48.767225586068 53.219472685096 125 69 69 8625 595125
165	97113505 3937 4883491 5585893 53.239472685096 57.235979130552 127 69 69 8763 604647
165	110596659 3750 5589284 6125585 57.255979130552 59.99987279468 122 69 69 8418 580842
vector 166 Highway5G.car[0].cellularNic.nrRlc.um receivedPacketFromUpperLayer:vector(packetBytes) ETV
attr interpolationmode none
attr recordingmode vector(packetBytes)
attr source receivedPacketFromUpperLayer
166	3151579 11722 4551 704329 1.1 18.734036150424 429 69 69 29601 2042469
166	15276031 9599 705464 1390999 18.754036150424 27.428564516419 313 69 69 21597 1490193
166	28530771 7502 1393086 2073202 27.448564516419 33.991750534428 242 69 69 16698 1152162
166	42127969 8246 2075406 2742666 34.011750534428 39.311750534428 266 69 69 18354 1266426
166	55818699 7936 2745324 3454429 39.331750534428 44.431750534428 256 69 69 17664 1218816
166	69525400 4309 3457313 4158005 44.451750534428 48.747225586068 139 69 69 9591 661779
166	83336377 3875 4161061 4879971 48.767225586068 53.219472685096 125 69 69 8625 595125
166	97117442 3937 4883492 5585894 53.239472685096 57.235979130552 127 69 69 8763 604647
166	110600409 3750 5589285 6125586 57.255979130552 59.99987279468 122 69 69 8418 580842
vector 167 Highway5G.car[0].cellularNic.nrMac receivedPacketFromUpperLayer:vector(packetBytes) ETV
attr interpolationmode none
attr recordingmode vector(packetBytes)
attr source receivedPacketFromUpperLayer
167	3163301 24812 4553 704614 1.1 18.739 1081 5 71 61364 3910934
167	15285630 17980 705466 1391466 18.754036150424 27.433 712 9 71 44618 3044210
167	28538273 13838 1393088 2073204 27.448564516419 33.991750534428 530 21 71 34387 2345323
167	42136215 15451 2073672 2744066 33.996 39.322 594 9 71 37965 2564149
167	55826635 15487 2745326 3455127 39.331750534428 44.436 601 9 71 36530 2452128
167	69529709 9110 3457315 4159582 44.451750534428 48.758 361 9 71 19904 1329686
167	83340252 8263 4161063 4880794 48.767225586068 53.224 328 9 71 17906 1141258
167	97121379 8828 4883494 5585896 53.239472685096 57.235979130552 355 9 71 18167 1086109
167	110604159 7959 5586661 6125588 57.24 59.99987279468 322 9 71 17480 1144384
vector 168 Highway5G.car[0].cellularNic.nrMac sentPacketToLowerLayer:vector(packetBytes) ETV
attr interpolationmode none
attr recordingmode vector(packetBytes)
attr source sentPacketToLowerLayer
168	3188113 21338 4560 704619 1.101 18.739 1083 1 73 32777 1884687
168	15303610 14900 705503 1391471 18.755 27.433 712 1 73 23506 1557866
168	28552111 11418 1393135 2073263 27.449 33.992 530 1 73 18023 1195615
168	42151666 12802 2073699 2744087 33.996 39.322 594 1 73 20001 1301137
168	55842122 12966 2745395 3455142 39.332 44.436 601 1 73 19300 1236684
168	69538819 7781 3457401 4158729 44.452 48.752 360 1 73 10607 670033
168	83348515 6962 4159597 4880808 48.758 53.224 329 1 73 9573 548315
168	97130207 7495 4883603 5585998 53.24 57.236 356 1 73 9787 486457
168	110612118 6777 5586691 6125707 57.24 60 322 1 73 9340 565576
vector 169 Highway5G.car[0].cellularNic.nrChannelModel[0] measuredSinrUl:vector ETV
attr recordingmode vector
attr source measuredSinrUl
attr title "SINR measured at feedback computation, UL"
attr unit dB
169	3209451 96962 4572 704777 1.102 18.742 2941 -4.5909859852887 24.226324397429 37663.35579896 616458.8321249
169	15318510 49444 705108 1391183 18.748 27.43 1448 8.4247982757425 31.355124550417 26617.738155447 534679.20109611
169	28563529 37518 1391782 2072849 27.436 33.988 1093 10.180995013339 19.401987688677 19516.144286145 355705.59987481
169	42164468 30914 2073458 2744091 33.994 39.322 889 9.3089330668941 26.29485908246 16536.186148679 326257.9729252
169	55855088 29696 2744888 3456574 39.328 44.446 854 10.959707045476 26.787819733938 16020.134828345 321046.85904342
169	69546600 24969 3457421 4159037 44.452 48.754 718 12.365150604685 38.334672202539 17408.923951855 483029.01263076
169	83355477 25941 4159943 4881894 48.76 53.23 746 6.9283207118437 20.273321215108 10596.495340015 160980.00073736
169	97137702 23175 4882885 5585327 53.236 57.232 667 10.58745892577 20.273321215108 9937.5990841699 155269.21784925
169	110618895 15892 5586323 6125329 57.238 59.998 461 -0.62757207790083 16.92654368055 4874.4464893091 72377.337582713
vector 170 Highway5G.car[0].cellularNic.nrChannelModel[0] measuredSinrDl:vector ETV
attr recordingmode vector
attr source measuredSinrDl
attr title "SINR measured at feedback computation, DL"
attr unit dB
170	3306413 96477 4572 704777 1.102 18.742 2941 16.128696791912 43.054250213729 94445.008308105 3158076.2152914
170	15367954 49276 705108 1391183 18.748 27.43 1448 23.962134000706 44.948443918761 49259.931878925 1724977.5112562
170	28601047 38010 1391782 2072849 27.436 33.988 1093 26.922908097472 48.18153699969 42982.365148359 1724545.5677411
170	42195382 30749 2073458 2744091 33.994 39.322 889 20.349777844264 56.549346983041 30846.330046675 1126570.0643732
170	55884784 29365 2744888 3456574 39.328 44.446 854 29.46056870306 56.549346983041 37852.971415006 1724942.9843037
170	69571569 24530 3457421 4159037 44.452 48.754 718 32.294417906711 48.760668388284 27106.603063956 1039655.1576246
170	83381418 25883 4159943 4881894 48.76 53.23 746 19.732253469924 38.147359766631 22628.76620041 706063.07670348
170	97160877 23030 4882885 5585327 53.236 57.232 667 28.511250120337 51.153447950413 25253.774819457 1000029.599943
170	110634787 15883 5586323 6125329 57.238 59.998 461 24.820994631683 31.317144008374 13481.047985265 397696.52002941
vector 171 Highway5G.gNodeB2.cellularNic.mac receivedPacketFromLowerLayer:vector(packetBytes) ETV
attr interpolationmode none
attr recordingmode vector(packetBytes)
attr source receivedPacketFromLowerLayer
171	3402890 299419 4573 704788 1.102 18.742 15347 1 73 171227 10643415
171	15417230 358611 704902 1391594 18.744 27.434 17416 1 168 185686 10976518
171	28639057 441480 1391704 2073280 27.435 33.992 21010 1 140 245204 14162286
171	42226131 479017 2073284 2744621 33.992 39.326 22787 1 108 257147 13968757
171	55914149 574618 2744889 3457013 39.328 44.449 27329 1 127 299347 17132735
171	69596099 567372 3457133 4159485 44.45 48.757 26982 1 175 297984 17776622
171	83407301 582897 4159602 4881924 48.758 53.23 27753 1 73 299749 16333365
171	97183907 554414 4881937 5586166 53.23 57.237 26386 1 77 274075 14746605
171	110650670 403406 5586324 6125762 57.238 60 19186 1 216 225597 12982427
[...]
attr recordingmode vector
attr source measuredSinrUl
attr title "SINR measured at feedback computation, UL"
attr unit dB
1639	108710565 823 5562509 5585693 57.102 57.234 23 17.94909238036 21.070251828523 481.44129466738 10086.944065172
1639	119793588 16491 5586719 6125751 57.24 60 461 3.0465705672905 26.559033730155 8155.1716265779 184768.21927788
vector 1640 Highway5G.car[39].cellularNic.nrChannelModel[0] measuredSinrDl:vector ETV
attr recordingmode vector
attr source measuredSinrDl
attr title "SINR measured at feedback computation, DL"
attr unit dB
1640	108711388 813 5562509 5585693 57.102 57.234 23 24.3578072069 25.53219105295 561.58529860242 13713.390224793
1640	119810079 16203 5586719 6125751 57.24 60 461 24.3578072069 29.293433000943 12557.572662099 343808.66089841
vector 1641 Highway5G.car[39].cellularNic.nrMac receivedPacketFromLowerLayer:vector(packetBytes) ETV
attr interpolationmode none
attr recordingmode vector(packetBytes)
attr source receivedPacketFromLowerLayer
1641	108712201 461 5562670 5584834 57.103 57.229 21 1 1 21 21
1641	119826282 8162 5587049 6125524 57.242 59.999 371 1 1 371 371
vector 1642 Highway5G.car[39].cellularNic.nrMac sentPacketToUpperLayer:vector(packetBytes) ETV
attr interpolationmode none
attr recordingmode vector(packetBytes)
attr source sentPacketToUpperLayer
1642	108712662 154 5562919 5583826 57.105 57.224 7 1 1 7 7
1642	119834444 2816 5587209 6125624 57.244 60 129 1 1 129 129
vector 1643 Highway5G.car[39].cellularNic.nrRlc.um rlcPacketLossUl:vector ETV
attr recordingmode vector
attr source rlcPacketLossUl
attr title "rlc Packet Loss"
attr unit ""
1643	108712816 308 5562921 5584640 57.105 57.228 14 0 0 0 0
1643	119837260 5251 5587211 6125626 57.244 60 240 0 0 0 0
vector 1644 Highway5G.car[39].cellularNic.nrRlc.um sentPacketToLowerLayer:vector(packetBytes) ETV
attr interpolationmode none
attr recordingmode vector(packetBytes)
attr source sentPacketToLowerLayer
1644	108713124 161 5562921 5583828 57.105 57.224 7 71 71 497 35287
1644	119842511 2945 5587211 6125626 57.244 60 129 26 71 7941 523575
vector 1645 Highway5G.car[39].cellularNic.nrPhy averageCqiUl:vector ETV
attr recordingmode vector
attr source averageCqiUl
attr title "Average Cqi reported in UL"
attr unit cqi
1645	108713285 161 5563009 5583940 57.105 57.224 7 11 11 77 847
1645	119845456 2931 5587323 6125724 57.244 60 130 3 13 1277 14343
vector 1646 Highway5G.car[39].cellularNic.nrChannelModel[0] rcvdSinrUl:vector ETV
attr recordingmode vector
attr source rcvdSinrUl
attr title "SINR measured at packet reception, UL"
attr unit dB
1646	108713446 252 5563224 5584151 57.106 57.225 7 21.172783451605 26.240763408764 153.33080205888 3380.5574131208
1646	119848387 4637 5587537 6123094 57.245 59.987 129 3.2457464346318 25.924286389971 2328.300481788 49542.13916249
vector 1647 Highway5G.car[39].cellularNic.nrMac macDelayUl:vector ETV
attr recordingmode vector
attr source macDelayUl
attr title "Delay at the MAC layer UL"
attr unit s
1647	108713698 182 5563707 5584637 57.109 57.228 7 0.004 0.004 0.028 0.000112
1647	119853024 3320 5588021 6123682 57.248 59.99 128 0.004 0.01 0.518 0.002132
vector 1648 Highway5G.car[39].cellularNic.nrRlc.um rlcPduThroughputUl:vector ETV
attr recordingmode vector
attr source rlcPduThroughputUl
attr title "Throughput at the rlc layer UL"
attr unit Bps
1648	108713880 154 5563710 5584640 57.109 57.228 7 0 0 0 0
1648	119856344 2809 5588024 6123693 57.248 59.99 128 0 0 0 0
vector 1649 Highway5G.car[39].cellularNic.nrRlc.um rlcPduDelayUl:vector ETV
attr recordingmode vector
attr source rlcPduDelayUl
attr title "Delay at the rlc layer UL"
attr unit s
1649	108714034 182 5563710 5584640 57.109 57.228 7 0.004 0.004 0.028 0.000112
1649	119859153 3320 5588024 6123693 57.248 59.99 128 0.004 0.01 0.518 0.002132
vector 1650 Highway5G.car[39].cellularNic.nrRlc.um rlcThroughputUl:vector ETV
attr recordingmode vector
attr source rlcThroughputUl
attr title "Throughput at the rlc layer UL"
attr unit Bps
1650	108714216 252 5563710 5584640 57.109 57.228 7 1.2082158679017 8.4399245124764 33.783302427601 203.72033221189
1650	119862473 3980 5588024 6123693 57.248 59.99 111 9.6422582448295 135.72262043674 8215.8389769485 759736.146711
vector 1651 Highway5G.car[39].cellularNic.nrRlc.um rlcPacketLossTotal:vector ETV
attr recordingmode vector
attr source rlcPacketLossTotal
attr title "rlc Packet Loss"
attr unit ""
1651	108714468 154 5563710 5584640 57.109 57.228 7 0 0 0 0
1651	119866453 2435 5588024 6123693 57.248 59.99 111 0 0 0 0
vector 1652 Highway5G.car[39].cellularNic.nrRlc.um rlcDelayUl:vector ETV
attr recordingmode vector
attr source rlcDelayUl
attr title "Delay at the rlc layer UL"
attr unit s
1652	108714622 182 5563710 5584640 57.109 57.228 7 0.008 0.009 0.057 0.000465
1652	119868888 2942 5588024 6123693 57.248 59.99 111 0.008 0.014656683431 1.000596784017 0.0096117285843758
vector 1653 Highway5G.car[39].cellularNic.nrRlc.um rlcPduPacketLossUl:vector ETV
attr recordingmode vector
attr source rlcPduPacketLossUl
attr title "rlc Packet Loss"
attr unit ""
1653	108714804 154 5563710 5584640 57.109 57.228 7 0 0 0 0
1653	119871830 2809 5588024 6123693 57.248 59.99 128 0 0 0 0
vector 1654 Highway5G.server.app[39] voIPReceivedThroughput:vector ETV
attr recordingmode vector
attr source voIPReceivedThroughput
attr title "Throughput received at the application level"
attr unit Bps
1654	108714958 302 5563759 5584703 57.1090003588 57.2280003588 7 0.70041499148455 4.8927098316295 19.584523023561 68.463038741819
1654	119874639 4763 5588085 6123822 57.2480003588 59.9900005364 111 5.5897148895055 78.679779259813 4762.8051641149 255319.85163938
vector 1655 Highway5G.car[39].cellularNic.nrMac harqErrorRate_1st_Ul:vector ETV
attr recordingmode vector
attr source harqErrorRate_1st_Ul
attr title "Harq Error Rate Ul (1st tx)"
attr unit ""
1655	108715260 153 5563926 5584834 57.11 57.229 7 0 0 0 0
1655	119879402 2816 5588218 6123943 57.249 59.991 128 0 1 1 1
vector 1656 Highway5G.car[39].cellularNic.nrMac harqErrorRateUl:vector ETV
attr recordingmode vector
attr source harqErrorRateUl
attr title "Harq Error Rate Ul"
attr unit ""
1656	108715413 153 5563926 5584834 57.11 57.229 7 0 0 0 0
1656	119882218 2838 5588218 6123943 57.249 59.991 129 0 1 1 1
vector 1657 Highway5G.car[39].cellularNic.nrMac harqTxAttemptsUl:vector ETV
attr recordingmode vector
attr source harqTxAttemptsUl
attr title "Harq Tx Attempts Ul"
attr unit ""
1657	108715566 153 5563926 5584834 57.11 57.229 7 1 1 7 7
1657	119885056 2816 5588218 6123943 57.249 59.991 128 1 2 129 131
vector 1658 Highway5G.car[38].cellularNic.nrMac harqErrorRate_2nd_Ul:vector ETV
attr recordingmode vector
attr source harqErrorRate_2nd_Ul
attr title "Harq Error Rate Ul (2nd tx)"
attr unit ""
1658	108715719 22 5564890 5564890 57.115 57.115 1 0 0 0 0
vector 1659 Highway5G.car[30].cellularNic.nrMac harqErrorRate_2nd_Ul:vector ETV
attr recordingmode vector
attr source harqErrorRate_2nd_Ul
attr title "Harq Error Rate Ul (2nd tx)"
attr unit ""
1659	108715741 9050 5565848 5565848 57.12 57.12 1 0 0 0 0
vector 1660 Highway5G.server.app[37] voIPFrameDelay:vector ETV
attr recordingmode vector
attr source voIPFrameDelay
attr title "VoIP Frame Delay"
attr unit s
1660	119887872 5059 5593731 6125929 57.2810003588 60 136 0.0080006252 0.014791816231 1.425578098992 0.016081305996734
vector 1661 Highway5G.car[40].udp passedUpPk:vector(count) ETV
attr interpolationmode none
attr recordingmode vector(count)
attr source packetSentToUpper
attr title "packets passed up, count"
1661	119892931 20 5740120 5740120 58.1 58.1 1 0 0 0 0
vector 1662 Highway5G.car[40].udp droppedPkWrongPort:vector(count) ETV
attr interpolationmode none
attr recordingmode vector(count)
attr source packetDropReasonIsNoPortFound(packetDropped)
attr title "packets dropped (wrong port), count"
1662	119892951 20 5740120 5740120 58.1 58.1 1 0 0 0 0
vector 1663 Highway5G.car[40].udp droppedPkBadChecksum:vector(count) ETV
attr interpolationmode none
attr recordingmode vector(count)
attr source packetDropReasonIsIncorrectlyReceived(packetDropped)
attr title "packets dropped (checksum error), count"
1663	119892971 20 5740120 5740120 58.1 58.1 1 0 0 0 0
vector 1664 Highway5G.car[40].cellularNic.phy servingCell:vector ETV
attr recordingmode vector
attr source servingCell
attr title "ID of the serving eNodeB for the UE"
attr unit ""
1664	119892991 20 5740120 5740120 58.1 58.1 1 0 0 0 0
vector 1665 Highway5G.car[40].cellularNic.nrChannelModel[0] distance:vector ETV
attr recordingmode vector
attr source distance
attr title "distance between UE and serving base station"
attr unit meters
1665	119893011 195 5740120 6125928 58.1 60 6 531.50750286332 539.05885061227 3210.0507782374 1717464.0248009
vector 1666 Highway5G.car[40].cellularNic.nrPhy servingCell:vector ETV
attr recordingmode vector
attr source servingCell
attr title "ID of the serving eNodeB for the UE"
attr unit ""
1666	119893206 44 5740120 5936264 58.1 59.05001 2 1 2 3 5
vector 1667 Highway5G.car[40].app[0] voIPGeneratedThroughput:vector ETV
attr recordingmode vector
attr source voIPGeneratedThroughput
attr title "Throughput generated by the application"
attr unit Bps
1667	119893250 3314 5740140 6125600 58.1 60 96 0.68846815834768 64 3137.2989597823 135265.17998432
vector 1668 Highway5G.car[40].udp packetSent:vector(packetBytes) ETV
attr interpolationmode none
attr recordingmode vector(packetBytes)
attr source packetSent
attr title "packets sent, packetBytes"
1668	119896564 2088 5740142 6125613 58.1 60 96 48 48 4608 221184
vector 1669 Highway5G.car[40].cellularNic.pdcpRrc receivedPacketFromUpperLayer:vector(packetBytes) ETV
attr interpolationmode none
attr recordingmode vector(packetBytes)
attr source receivedPacketFromUpperLayer
1669	119898652 2094 5740148 6125616 58.1 60 96 68 68 6528 443904
vector 1670 Highway5G.car[40].cellularNic.pdcpRrc sentPacketToLowerLayer:vector(packetBytes) ETV
attr interpolationmode none
attr recordingmode vector(packetBytes)
attr source sentPacketToLowerLayer
1670	119900746 2094 5740148 6125616 58.1 60 96 69 69 6624 457056
vector 1671 Highway5G.car[40].cellularNic.nrRlc.um receivedPacketFromUpperLayer:vector(packetBytes) ETV
attr interpolationmode none
attr recordingmode vector(packetBytes)
attr source receivedPacketFromUpperLayer
1671	119902840 2094 5740150 6125617 58.1 60 96 69 69 6624 457056
vector 1672 Highway5G.car[40].cellularNic.nrMac receivedPacketFromUpperLayer:vector(packetBytes) ETV
attr interpolationmode none
attr recordingmode vector(packetBytes)
attr source receivedPacketFromUpperLayer
1672	119904934 6281 5740153 6125619 58.1 60 282 21 159 13743 789301
vector 1673 Highway5G.car[40].cellularNic.nrMac sentPacketToLowerLayer:vector(packetBytes) ETV
attr interpolationmode none
attr recordingmode vector(packetBytes)
attr source sentPacketToLowerLayer
1673	119911215 6162 5740380 6125621 58.101 60 281 1 161 7394 333912
vector 1674 Highway5G.car[40].cellularNic.nrChannelModel[0] measuredSinrUl:vector ETV
attr recordingmode vector
attr source measuredSinrUl
attr title "SINR measured at feedback computation, UL"
attr unit dB
1674	119917377 11342 5740713 6125357 58.102 59.998 317 5.1783186669767 11.325309471307 2614.1976974924 24490.651790973
vector 1675 Highway5G.car[40].cellularNic.nrChannelModel[0] measuredSinrDl:vector ETV
attr recordingmode vector
attr source measuredSinrDl
attr title "SINR measured at feedback computation, DL"
attr unit dB
1675	119928719 11202 5740713 6125357 58.102 59.998 317 27.216496529244 29.398042161482 9283.9525923031 271906.99429274
vector 1676 Highway5G.car[40].cellularNic.nrMac receivedPacketFromLowerLayer:vector(packetBytes) ETV
attr interpolationmode none
attr recordingmode vector(packetBytes)
attr source receivedPacketFromLowerLayer
1676	119939921 10250 5740920 6124807 58.103 59.995 466 1 1 466 466
vector 1677 Highway5G.car[40].cellularNic.nrMac sentPacketToUpperLayer:vector(packetBytes) ETV
attr interpolationmode none
attr recordingmode vector(packetBytes)
attr source sentPacketToUpperLayer
1677	119950171 4000 5741175 6123574 58.105 59.99 186 1 1 186 186
vector 1678 Highway5G.car[40].cellularNic.nrRlc.um rlcPacketLossUl:vector ETV
attr recordingmode vector
attr source rlcPacketLossUl
attr title "rlc Packet Loss"
attr unit ""
1678	119954171 7032 5741177 6124468 58.105 59.994 326 0 1 45 45
vector 1679 Highway5G.car[40].cellularNic.nrRlc.um sentPacketToLowerLayer:vector(packetBytes) ETV
attr interpolationmode none
attr recordingmode vector(packetBytes)
attr source sentPacketToLowerLayer
1679	119961203 4187 5741177 6123576 58.105 59.99 186 21 159 6927 305365
vector 1680 Highway5G.car[40].cellularNic.nrPhy averageCqiUl:vector ETV
attr recordingmode vector
attr source averageCqiUl
attr title "Average Cqi reported in UL"
attr unit cqi
1680	119965390 4000 5741298 6123716 58.105 59.99 186 4 7 1025 6065
vector 1681 Highway5G.car[40].cellularNic.nrChannelModel[0] rcvdSinrUl:vector ETV
attr recordingmode vector
attr source rcvdSinrUl
attr title "SINR measured at packet reception, UL"
attr unit dB
1681	119969390 6695 5741543 6123948 58.106 59.991 186 5.1614450218863 18.232792727079 2284.6370731505 30980.921503112
vector 1682 Highway5G.car[40].cellularNic.nrMac macDelayUl:vector ETV
attr recordingmode vector
attr source macDelayUl
attr title "Delay at the MAC layer UL"
attr unit s
1682	119976085 4835 5742137 6124459 58.109 59.994 186 0.004 0.004 0.744 0.002976
vector 1683 Highway5G.car[40].cellularNic.nrRlc.um rlcPduThroughputUl:vector ETV
attr recordingmode vector
attr source rlcPduThroughputUl
attr title "Throughput at the rlc layer UL"
attr unit Bps
1683	119980920 4091 5742152 6124468 58.109 59.994 186 0 0 0 0
vector 1684 Highway5G.car[40].cellularNic.nrRlc.um rlcPduDelayUl:vector ETV
attr recordingmode vector
attr source rlcPduDelayUl
attr title "Delay at the rlc layer UL"
attr unit s
1684	119985011 4835 5742152 6124468 58.109 59.994 186 0.004 0.004 0.744 0.002976
vector 1685 Highway5G.car[40].cellularNic.nrRlc.um rlcPduPacketLossUl:vector ETV
attr recordingmode vector
attr source rlcPduPacketLossUl
attr title "rlc Packet Loss"
attr unit ""
1685	119989846 4091 5742152 6124468 58.109 59.994 186 0 0 0 0
vector 1686 Highway5G.car[40].cellularNic.nrMac harqErrorRate_1st_Ul:vector ETV
attr recordingmode vector
attr source harqErrorRate_1st_Ul
attr title "Harq Error Rate Ul (1st tx)"
attr unit ""
1686	119993937 4091 5742362 6124807 58.11 59.995 186 0 0 0 0
vector 1687 Highway5G.car[40].cellularNic.nrMac harqErrorRateUl:vector ETV
attr recordingmode vector
attr source harqErrorRateUl
attr title "Harq Error Rate Ul"
attr unit ""
1687	119998028 4091 5742362 6124807 58.11 59.995 186 0 0 0 0
vector 1688 Highway5G.car[40].cellularNic.nrMac harqTxAttemptsUl:vector ETV
attr recordingmode vector
attr source harqTxAttemptsUl
attr title "Harq Tx Attempts Ul"
attr unit ""
1688	120002119 4091 5742362 6124807 58.11 59.995 186 1 1 186 186
vector 1689 Highway5G.car[40].cellularNic.nrRlc.um rlcThroughputUl:vector ETV
attr recordingmode vector
attr source rlcThroughputUl
attr title "Throughput at the rlc layer UL"
attr unit Bps
1689	120006210 3408 5743316 6124468 58.115 59.994 95 1.1681056373794 56.355635563556 2686.8627532956 100060.89488932
vector 1690 Highway5G.car[40].cellularNic.nrRlc.um rlcPacketLossTotal:vector ETV
attr recordingmode vector
attr source rlcPacketLossTotal
attr title "rlc Packet Loss"
attr unit ""
1690	120009618 3032 5743316 6124468 58.115 59.994 140 0 1 45 45
vector 1691 Highway5G.car[40].cellularNic.nrRlc.um rlcDelayUl:vector ETV
attr recordingmode vector
attr source rlcDelayUl
attr title "Delay at the rlc layer UL"
attr unit s
1691	120012650 2464 5743316 6124468 58.115 59.994 95 0.01 0.05 1.379 0.021561
vector 1692 Highway5G.server.app[40] voIPReceivedThroughput:vector ETV
attr recordingmode vector
attr source voIPReceivedThroughput
attr title "Throughput received at the application level"
attr unit Bps
1692	120015114 4053 5743447 6124651 58.1150006252 59.9940005988 95 0.6882904511689 63.33966666787 3072.5481189158 131105.8188321
vector 1693 Highway5G.car[39].cellularNic.nrMac harqErrorRate_2nd_Ul:vector ETV
attr recordingmode vector
attr source harqErrorRate_2nd_Ul
attr title "Harq Error Rate Ul (2nd tx)"
attr unit ""
1693	120019167 22 5949274 5949274 59.115 59.115 1 0 0 0 0
vector 1694 Highway5G.server.app[39] voIPFrameDelay:vector ETV
attr recordingmode vector
attr source voIPFrameDelay
attr title "VoIP Frame Delay"
attr unit s
1694	120019189 4657 6099721 6125929 59.8700005364 60 118 0.0080003588 0.014657219831 1.057651290417 0.010077747741327
vector 1695 Highway5G.server.ppp[0].queue outgoingDataRate:vector ETV
attr interpolationmode linear
attr recordingmode vector
attr source throughput(packetPulled)
attr title "outgoing datarate"
attr unit bps
1695	120023846 11781 6125929 6125929 0.1 60 600 0 0 0 0
vector 1696 Highway5G.server.ppp[0].queue incomingDataRate:vector ETV
attr interpolationmode linear
attr recordingmode vector
attr source throughput(packetPushStarted)
attr title "incoming datarate"
attr unit bps
1696	120035627 11781 6125929 6125929 0.1 60 600 0 0 0 0
vector 1697 Highway5G.server.app[40] voIPFrameDelay:vector ETV
attr recordingmode vector
attr source voIPFrameDelay
attr title "VoIP Frame Delay"
attr unit s
1697	120047408 2729 6125929 6125929 60 60 95 0.0100005388 0.0500003588 1.3790585948 0.021562678786244
vector 1698 Highway5G.router.ppp[1].queue outgoingDataRate:vector ETV
attr interpolationmode linear
attr recordingmode vector
attr source throughput(packetPulled)
attr title "outgoing datarate"
attr unit bps
1698	120050137 11781 6125929 6125929 0.1 60 600 0 0 0 0
vector 1699 Highway5G.router.ppp[1].queue incomingDataRate:vector ETV
attr interpolationmode linear
attr recordingmode vector
attr source throughput(packetPushStarted)
attr title "incoming datarate"
attr unit bps
1699	120061918 11781 6125929 6125929 0.1 60 600 0 0 0 0
vector 1700 Highway5G.upf.ppp[0].queue outgoingDataRate:vector ETV
attr interpolationmode linear
attr recordingmode vector
attr source throughput(packetPulled)
attr title "outgoing datarate"
attr unit bps
1700	120073699 11781 6125929 6125929 0.1 60 600 0 0 0 0
vector 1701 Highway5G.upf.ppp[0].queue incomingDataRate:vector ETV
attr interpolationmode linear
attr recordingmode vector
attr source throughput(packetPushStarted)
attr title "incoming datarate"
attr unit bps
1701	120085480 11781 6125929 6125929 0.1 60 600 0 0 0 0
vector 1702 Highway5G.upf.ppp[1].queue outgoingDataRate:vector ETV
attr interpolationmode linear
attr recordingmode vector
attr source throughput(packetPulled)
attr title "outgoing datarate"
attr unit bps
1702	120097261 11781 6125929 6125929 0.1 60 600 0 0 0 0
vector 1703 Highway5G.upf.ppp[1].queue incomingDataRate:vector ETV
attr interpolationmode linear
attr recordingmode vector
attr source throughput(packetPushStarted)
attr title "incoming datarate"
attr unit bps
1703	120109042 11781 6125929 6125929 0.1 60 600 0 0 0 0
vector 1704 Highway5G.gNodeB1.pppMEHostIf.queue outgoingDataRate:vector ETV
attr interpolationmode linear
attr recordingmode vector
attr source throughput(packetPulled)
attr title "outgoing datarate"
attr unit bps
1704	120120823 11781 6125929 6125929 0.1 60 600 0 0 0 0
vector 1705 Highway5G.gNodeB1.pppMEHostIf.queue incomingDataRate:vector ETV
attr interpolationmode linear
attr recordingmode vector
attr source throughput(packetPushStarted)
attr title "incoming datarate"
attr unit bps
1705	120132604 11781 6125929 6125929 0.1 60 600 0 0 0 0
vector 1706 Highway5G.gNodeB2.pppMEHostIf.queue outgoingDataRate:vector ETV
attr interpolationmode linear
attr recordingmode vector
attr source throughput(packetPulled)
attr title "outgoing datarate"
attr unit bps
1706	120144385 11781 6125929 6125929 0.1 60 600 0 0 0 0
vector 1707 Highway5G.gNodeB2.pppMEHostIf.queue incomingDataRate:vector ETV
attr interpolationmode linear
attr recordingmode vector
attr source throughput(packetPushStarted)
attr title "incoming datarate"
attr unit bps
1707	120156166 11782 6125929 6125929 0.1 60 600 0 0 0 0
