file 120166804 1751676338                                       
version 3
run VoIP-UL-0-20250704-21:21:17-384870
attr configname VoIP-UL
attr datetime 20250704-21:21:17
attr datetimef 20250704-212117
attr experiment VoIP-UL
attr inifile omnetpp.ini
attr iterationvars ""
attr iterationvarsd ""
attr iterationvarsf ""
attr measurement ""
attr network Highway5G
attr processid 384870
attr repetition 0
attr replication #0
attr resultdir results
attr runnumber 0
attr seedset 0
config image-path ../../../../../../../OMNET/omnetpp-6.0.3/workspaces/inet4.5/images:../../../../../../../OMNET/omnetpp-6.0.3/workspaces/simu5g/images:../../../../../../../Dev/veins_new/images
config *.server.numApps 45
config *.server.app[*].typename VoIPReceiver
config *.server.app[*].localPort "3000 + ancestorIndex(0)"
config *.car[*].numApps 1
config *.car[*].app[0].typename VoIPSender
config *.car[*].app[0].destAddress "\"server\""
config *.car[*].app[0].destPort "3000 + ancestorIndex(1)"
config cmdenv-express-mode true
config cmdenv-autoflush true
config image-path ../../images
config network Highway5G
config debug-on-errors false
config print-undisposed false
config sim-time-limit 60s
config **.scalar-recording true
config **.vector-recording true
config **.mobility.tracemobility true
config **.sctp.**.scalar-recording true
config **.sctp.**.vector-recording true
config **.routingRecorder.enabled false
config *.veinsManager.host "\"localhost\""
config *.veinsManager.port 9999
config *.veinsManager.moduleType "\"simu5g.nodes.cars.NRCar\""
config *.veinsManager.moduleName "\"car\""
config *.veinsManager.launchConfig "xmldoc(\"cenarioA.launchd.xml\")"
config *.veinsManager.updateInterval 0.1s
config *.physicalEnvironment.config "xmldoc(\"obstacles.xml\")"
config *.radioMedium.obstacleLoss.typename IdealObstacleLoss
config *.car[*].mobility.typename projectpredicthandover.veins_inet.VeinsInetMobility
config **.mobility.constraintAreaMaxX 3000m
config **.mobility.constraintAreaMinX 0m
config **.mobility.constraintAreaMaxY 3000m
config **.mobility.constraintAreaMinY 0m
config **.mobility.constraintAreaMinZ 0m
config **.mobility.constraintAreaMaxZ 10m
config *.gNodeB1.mobility.initialX 1129.71m
config *.gNodeB1.mobility.initialY 555.867m
config *.gNodeB1.mobility.initialZ 0m
config *.gNodeB1.mobility.constraintAreaMinX 1129.71m
config *.gNodeB1.mobility.constraintAreaMaxX 1129.71m
config *.gNodeB1.mobility.constraintAreaMinY 555.867m
config *.gNodeB1.mobility.constraintAreaMaxY 555.867m
config *.gNodeB1.mobility.constraintAreaMinZ 0m
config *.gNodeB1.mobility.constraintAreaMaxZ 0m
config *.gNodeB2.mobility.initialX 1939.01m
config *.gNodeB2.mobility.initialY 1157.78m
config *.gNodeB2.mobility.initialZ 1.5m
config *.gNodeB2.mobility.constraintAreaMinX 1939.01m
config *.gNodeB2.mobility.constraintAreaMaxX 1939.01m
config *.gNodeB2.mobility.constraintAreaMinY 1157.78m
config *.gNodeB2.mobility.constraintAreaMaxY 1157.78m
config *.gNodeB2.mobility.constraintAreaMinZ 0m
config *.gNodeB2.mobility.constraintAreaMaxZ 0m
config **.numBands 25
config **.ueTxPower 26
config **.eNodeBTxPower 46
config *.car[*].cellularNic.nrPhy.dynamicCellAssociation true
config *.car[*].masterId 0
config *.car[*].macCellId 0
config *.car[*].nrMasterId 1
config *.car[*].nrMacCellId 1
config **.gNodeB1.macCellId 1
config **.gNodeB1.macNodeId 1
config **.gNodeB2.macCellId 2
config **.gNodeB2.macNodeId 2
config *.car[*].cellularNic.nrPhy.enableHandover true
config *.gNodeB*.cellularNic.phy.enableHandover true
config *.gNodeB*.cellularNic.phy.handoverLatency 50ms
config *.gNodeB*.cellInfo.broadcastMessageInterval 1s
config *.gNodeB*.numX2Apps 1
config *.gNodeB*.x2App[*].server.localPort "5000 + ancestorIndex(1)"
config *.gNodeB1.x2App[0].client.connectAddress "\"gNodeB2%x2ppp0\""
config *.gNodeB2.x2App[0].client.connectAddress "\"gNodeB1%x2ppp0\""
config **.sctp.nagleEnabled false
config **.sctp.enableHeartbeats false
config *.visualizer.*.obstacleLossVisualizer.displayIntersections true
config *.visualizer.*.obstacleLossVisualizer.displayFaceNormalVectors true
config *.visualizer.*.obstacleLossVisualizer.intersectionLineColor "\"yellow\""
config *.visualizer.*.mediumVisualizer.signalPropagationAnimationSpeed 500/3e8
config *.visualizer.*.mediumVisualizer.signalTransmissionAnimationSpeed 50000/3e8
config *.visualizer.*.mediumVisualizer.displaySignals true
config *.visualizer.canvasVisualizer.mediumVisualizer.displaySignalDepartures false
config *.visualizer.canvasVisualizer.mediumVisualizer.displaySignalArrivals false
config *.visualizer.*.physicalLinkVisualizer.displayLinks true

vector 0 Highway5G.server.ppp[0].queue queueLength:vector ETV
attr autoWarmupFilter false
attr interpolationmode sample-hold
attr recordingmode vector
attr source "warmup(atomic(constant0(packetPushEnded) + count(packetPushStarted) - count(packetPulled) - count(packetRemoved) - count(packetDropped)))"
attr title "queue length"
attr unit pk
vector 1 Highway5G.server.ppp[0].queue queueBitLength:vector ETV
attr autoWarmupFilter false
attr interpolationmode sample-hold
attr recordingmode vector
attr source "warmup(atomic(constant0(packetPushEnded) + sum(packetLength(packetPushStarted)) - sum(packetLength(packetPulled)) - sum(packetLength(packetRemoved)) - sum(packetLength(packetDropped))))"
attr title "queue bit length"
attr unit b
vector 2 Highway5G.server.ppp[0].ppp transmissionState:vector ETV
attr interpolationmode sample-hold
attr recordingmode vector
attr source transmissionStateChanged
attr title "tx state"
vector 3 Highway5G.server.udp passedUpPk:vector(count) ETV
attr interpolationmode none
attr recordingmode vector(count)
attr source packetSentToUpper
attr title "packets passed up, count"
vector 4 Highway5G.server.udp droppedPkWrongPort:vector(count) ETV
attr interpolationmode none
attr recordingmode vector(count)
attr source packetDropReasonIsNoPortFound(packetDropped)
attr title "packets dropped (wrong port), count"
vector 5 Highway5G.server.udp droppedPkBadChecksum:vector(count) ETV
attr interpolationmode none
attr recordingmode vector(count)
attr source packetDropReasonIsIncorrectlyReceived(packetDropped)
attr title "packets dropped (checksum error), count"
vector 6 Highway5G.router.ppp[0].queue queueLength:vector ETV
attr autoWarmupFilter false
attr interpolationmode sample-hold
attr recordingmode vector
attr source "warmup(atomic(constant0(packetPushEnded) + count(packetPushStarted) - count(packetPulled) - count(packetRemoved) - count(packetDropped)))"
attr title "queue length"
attr unit pk
vector 7 Highway5G.router.ppp[0].queue queueBitLength:vector ETV
attr autoWarmupFilter false
attr interpolationmode sample-hold
attr recordingmode vector
attr source "warmup(atomic(constant0(packetPushEnded) + sum(packetLength(packetPushStarted)) - sum(packetLength(packetPulled)) - sum(packetLength(packetRemoved)) - sum(packetLength(packetDropped))))"
attr title "queue bit length"
attr unit b
vector 8 Highway5G.router.ppp[0].ppp transmissionState:vector ETV
attr interpolationmode sample-hold
attr recordingmode vector
attr source transmissionStateChanged
attr title "tx state"
vector 9 Highway5G.router.ppp[1].queue queueLength:vector ETV
attr autoWarmupFilter false
attr interpolationmode sample-hold
attr recordingmode vector
attr source "warmup(atomic(constant0(packetPushEnded) + count(packetPushStarted) - count(packetPulled) - count(packetRemoved) - count(packetDropped)))"
attr title "queue length"
attr unit pk
vector 10 Highway5G.router.ppp[1].queue queueBitLength:vector ETV
attr autoWarmupFilter false
attr interpolationmode sample-hold
attr recordingmode vector
attr source "warmup(atomic(constant0(packetPushEnded) + sum(packetLength(packetPushStarted)) - sum(packetLength(packetPulled)) - sum(packetLength(packetRemoved)) - sum(packetLength(packetDropped))))"
attr title "queue bit length"
attr unit b
vector 11 Highway5G.router.ppp[1].ppp transmissionState:vector ETV
attr interpolationmode sample-hold
attr recordingmode vector
attr source transmissionStateChanged
attr title "tx state"
vector 12 Highway5G.upf.ppp[0].queue queueLength:vector ETV
attr autoWarmupFilter false
attr interpolationmode sample-hold
attr recordingmode vector
attr source "warmup(atomic(constant0(packetPushEnded) + count(packetPushStarted) - count(packetPulled) - count(packetRemoved) - count(packetDropped)))"
attr title "queue length"
attr unit pk
vector 13 Highway5G.upf.ppp[0].queue queueBitLength:vector ETV
attr autoWarmupFilter false
attr interpolationmode sample-hold
attr recordingmode vector
attr source "warmup(atomic(constant0(packetPushEnded) + sum(packetLength(packetPushStarted)) - sum(packetLength(packetPulled)) - sum(packetLength(packetRemoved)) - sum(packetLength(packetDropped))))"
attr title "queue bit length"
attr unit b
vector 14 Highway5G.upf.ppp[0].ppp transmissionState:vector ETV
attr interpolationmode sample-hold
attr recordingmode vector
attr source transmissionStateChanged
attr title "tx state"
vector 15 Highway5G.upf.ppp[1].queue queueLength:vector ETV
attr autoWarmupFilter false
attr interpolationmode sample-hold
attr recordingmode vector
attr source "warmup(atomic(constant0(packetPushEnded) + count(packetPushStarted) - count(packetPulled) - count(packetRemoved) - count(packetDropped)))"
attr title "queue length"
attr unit pk
vector 16 Highway5G.upf.ppp[1].queue queueBitLength:vector ETV
attr autoWarmupFilter false
attr interpolationmode sample-hold
attr recordingmode vector
attr source "warmup(atomic(constant0(packetPushEnded) + sum(packetLength(packetPushStarted)) - sum(packetLength(packetPulled)) - sum(packetLength(packetRemoved)) - sum(packetLength(packetDropped))))"
attr title "queue bit length"
attr unit b
vector 17 Highway5G.upf.ppp[1].ppp transmissionState:vector ETV
attr interpolationmode sample-hold
attr recordingmode vector
attr source transmissionStateChanged
attr title "tx state"
vector 18 Highway5G.upf.pppIf.queue queueLength:vector ETV
attr autoWarmupFilter false
attr interpolationmode sample-hold
attr recordingmode vector
attr source "warmup(atomic(constant0(packetPushEnded) + count(packetPushStarted) - count(packetPulled) - count(packetRemoved) - count(packetDropped)))"
attr title "queue length"
attr unit pk
vector 19 Highway5G.upf.pppIf.queue queueBitLength:vector ETV
attr autoWarmupFilter false
attr interpolationmode sample-hold
attr recordingmode vector
attr source "warmup(atomic(constant0(packetPushEnded) + sum(packetLength(packetPushStarted)) - sum(packetLength(packetPulled)) - sum(packetLength(packetRemoved)) - sum(packetLength(packetDropped))))"
attr title "queue bit length"
attr unit b
vector 20 Highway5G.upf.pppIf.ppp transmissionState:vector ETV
attr interpolationmode sample-hold
attr recordingmode vector
attr source transmissionStateChanged
attr title "tx state"
vector 21 Highway5G.upf.udp passedUpPk:vector(count) ETV
attr interpolationmode none
attr recordingmode vector(count)
attr source packetSentToUpper
attr title "packets passed up, count"
vector 22 Highway5G.upf.udp droppedPkWrongPort:vector(count) ETV
attr interpolationmode none
attr recordingmode vector(count)
attr source packetDropReasonIsNoPortFound(packetDropped)
attr title "packets dropped (wrong port), count"
vector 23 Highway5G.upf.udp droppedPkBadChecksum:vector(count) ETV
attr interpolationmode none
attr recordingmode vector(count)
attr source packetDropReasonIsIncorrectlyReceived(packetDropped)
attr title "packets dropped (checksum error), count"
vector 24 Highway5G.gNodeB1.pppIf.queue queueLength:vector ETV
attr autoWarmupFilter false
attr interpolationmode sample-hold
attr recordingmode vector
attr source "warmup(atomic(constant0(packetPushEnded) + count(packetPushStarted) - count(packetPulled) - count(packetRemoved) - count(packetDropped)))"
attr title "queue length"
attr unit pk
vector 25 Highway5G.gNodeB1.pppIf.queue queueBitLength:vector ETV
attr autoWarmupFilter false
attr interpolationmode sample-hold
attr recordingmode vector
attr source "warmup(atomic(constant0(packetPushEnded) + sum(packetLength(packetPushStarted)) - sum(packetLength(packetPulled)) - sum(packetLength(packetRemoved)) - sum(packetLength(packetDropped))))"
attr title "queue bit length"
attr unit b
vector 26 Highway5G.gNodeB1.pppIf.ppp transmissionState:vector ETV
attr interpolationmode sample-hold
attr recordingmode vector
attr source transmissionStateChanged
attr title "tx state"
vector 27 Highway5G.gNodeB1.x2ppp[0].queue queueLength:vector ETV
attr autoWarmupFilter false
attr interpolationmode sample-hold
attr recordingmode vector
attr source "warmup(atomic(constant0(packetPushEnded) + count(packetPushStarted) - count(packetPulled) - count(packetRemoved) - count(packetDropped)))"
attr title "queue length"
attr unit pk
vector 28 Highway5G.gNodeB1.x2ppp[0].queue queueBitLength:vector ETV
attr autoWarmupFilter false
attr interpolationmode sample-hold
attr recordingmode vector
attr source "warmup(atomic(constant0(packetPushEnded) + sum(packetLength(packetPushStarted)) - sum(packetLength(packetPulled)) - sum(packetLength(packetRemoved)) - sum(packetLength(packetDropped))))"
attr title "queue bit length"
attr unit b
vector 29 Highway5G.gNodeB1.x2ppp[0].ppp transmissionState:vector ETV
attr interpolationmode sample-hold
attr recordingmode vector
attr source transmissionStateChanged
attr title "tx state"
vector 30 Highway5G.gNodeB1.pppMEHostIf.queue queueLength:vector ETV
attr autoWarmupFilter false
attr interpolationmode sample-hold
attr recordingmode vector
attr source "warmup(atomic(constant0(packetPushEnded) + count(packetPushStarted) - count(packetPulled) - count(packetRemoved) - count(packetDropped)))"
attr title "queue length"
attr unit pk
vector 31 Highway5G.gNodeB1.pppMEHostIf.queue queueBitLength:vector ETV
attr autoWarmupFilter false
attr interpolationmode sample-hold
attr recordingmode vector
attr source "warmup(atomic(constant0(packetPushEnded) + sum(packetLength(packetPushStarted)) - sum(packetLength(packetPulled)) - sum(packetLength(packetRemoved)) - sum(packetLength(packetDropped))))"
attr title "queue bit length"
attr unit b
vector 32 Highway5G.gNodeB1.pppMEHostIf.ppp transmissionState:vector ETV
attr interpolationmode sample-hold
attr recordingmode vector
attr source transmissionStateChanged
attr title "tx state"
vector 33 Highway5G.gNodeB1.udp passedUpPk:vector(count) ETV
attr interpolationmode none
attr recordingmode vector(count)
attr source packetSentToUpper
attr title "packets passed up, count"
vector 34 Highway5G.gNodeB1.udp droppedPkWrongPort:vector(count) ETV
attr interpolationmode none
attr recordingmode vector(count)
attr source packetDropReasonIsNoPortFound(packetDropped)
attr title "packets dropped (wrong port), count"
vector 35 Highway5G.gNodeB1.udp droppedPkBadChecksum:vector(count) ETV
attr interpolationmode none
attr recordingmode vector(count)
attr source packetDropReasonIsIncorrectlyReceived(packetDropped)
attr title "packets dropped (checksum error), count"
vector 36 Highway5G.gNodeB2.pppIf.queue queueLength:vector ETV
attr autoWarmupFilter false
attr interpolationmode sample-hold
attr recordingmode vector
attr source "warmup(atomic(constant0(packetPushEnded) + count(packetPushStarted) - count(packetPulled) - count(packetRemoved) - count(packetDropped)))"
attr title "queue length"
attr unit pk
vector 37 Highway5G.gNodeB2.pppIf.queue queueBitLength:vector ETV
attr autoWarmupFilter false
attr interpolationmode sample-hold
attr recordingmode vector
attr source "warmup(atomic(constant0(packetPushEnded) + sum(packetLength(packetPushStarted)) - sum(packetLength(packetPulled)) - sum(packetLength(packetRemoved)) - sum(packetLength(packetDropped))))"
attr title "queue bit length"
attr unit b
vector 38 Highway5G.gNodeB2.pppIf.ppp transmissionState:vector ETV
attr interpolationmode sample-hold
attr recordingmode vector
attr source transmissionStateChanged
attr title "tx state"
vector 39 Highway5G.gNodeB2.x2ppp[0].queue queueLength:vector ETV
attr autoWarmupFilter false
attr interpolationmode sample-hold
attr recordingmode vector
attr source "warmup(atomic(constant0(packetPushEnded) + count(packetPushStarted) - count(packetPulled) - count(packetRemoved) - count(packetDropped)))"
attr title "queue length"
attr unit pk
vector 40 Highway5G.gNodeB2.x2ppp[0].queue queueBitLength:vector ETV
attr autoWarmupFilter false
attr interpolationmode sample-hold
attr recordingmode vector
attr source "warmup(atomic(constant0(packetPushEnded) + sum(packetLength(packetPushStarted)) - sum(packetLength(packetPulled)) - sum(packetLength(packetRemoved)) - sum(packetLength(packetDropped))))"
attr title "queue bit length"
attr unit b
vector 41 Highway5G.gNodeB2.x2ppp[0].ppp transmissionState:vector ETV
attr interpolationmode sample-hold
attr recordingmode vector
attr source transmissionStateChanged
attr title "tx state"
vector 42 Highway5G.gNodeB2.pppMEHostIf.queue queueLength:vector ETV
attr autoWarmupFilter false
attr interpolationmode sample-hold
attr recordingmode vector
attr source "warmup(atomic(constant0(packetPushEnded) + count(packetPushStarted) - count(packetPulled) - count(packetRemoved) - count(packetDropped)))"
attr title "queue length"
attr unit pk
vector 43 Highway5G.gNodeB2.pppMEHostIf.queue queueBitLength:vector ETV
attr autoWarmupFilter false
attr interpolationmode sample-hold
attr recordingmode vector
attr source "warmup(atomic(constant0(packetPushEnded) + sum(packetLength(packetPushStarted)) - sum(packetLength(packetPulled)) - sum(packetLength(packetRemoved)) - sum(packetLength(packetDropped))))"
attr title "queue bit length"
attr unit b
vector 44 Highway5G.gNodeB2.pppMEHostIf.ppp transmissionState:vector ETV
attr interpolationmode sample-hold
attr recordingmode vector
attr source transmissionStateChanged
attr title "tx state"
vector 45 Highway5G.gNodeB2.udp passedUpPk:vector(count) ETV
attr interpolationmode none
attr recordingmode vector(count)
attr source packetSentToUpper
attr title "packets passed up, count"
vector 46 Highway5G.gNodeB2.udp droppedPkWrongPort:vector(count) ETV
attr interpolationmode none
attr recordingmode vector(count)
attr source packetDropReasonIsNoPortFound(packetDropped)
attr title "packets dropped (wrong port), count"
vector 47 Highway5G.gNodeB2.udp droppedPkBadChecksum:vector(count) ETV
attr interpolationmode none
attr recordingmode vector(count)
attr source packetDropReasonIsIncorrectlyReceived(packetDropped)
attr title "packets dropped (checksum error), count"
vector 48 Highway5G.gNodeB1.sctp "Throughput of Association 68" ETV
vector 49 Highway5G.gNodeB2.sctp "Throughput of Association 69" ETV
vector 50 Highway5G.gNodeB1.sctp "Throughput of Association 49" ETV
vector 51 Highway5G.gNodeB1.sctp "Fast Recovery State 49:192.168.4.2" ETV
vector 52 Highway5G.gNodeB2.sctp "Throughput of Association 53" ETV
vector 53 Highway5G.gNodeB2.sctp "Fast Recovery State 53:192.168.4.1" ETV
vector 54 Highway5G.gNodeB1.x2ppp[0].queue incomingPacketLengths:vector ETV
attr interpolationmode none
attr recordingmode vector
attr source packetLength(packetPushStarted)
attr title "incoming packet lengths"
attr unit b
vector 55 Highway5G.gNodeB1.x2ppp[0].queue queueingTime:vector ETV
attr interpolationmode none
attr recordingmode vector
attr source queueingTime(packetPulled)
attr title "queueing times"
attr unit s
vector 56 Highway5G.gNodeB1.x2ppp[0].queue outgoingPacketLengths:vector ETV
attr interpolationmode none
attr recordingmode vector
attr source packetLength(packetPulled)
attr title "outgoing packet lengths"
attr unit b
vector 57 Highway5G.gNodeB1.x2ppp[0].ppp rcvdPkFromHl:vector(packetBytes) ETV
attr interpolationmode none
attr recordingmode vector(packetBytes)
attr source packetReceivedFromUpper
attr title "packets received from higher layer, packetBytes"
vector 58 Highway5G.gNodeB1.x2ppp[0].ppp txPk:vector(packetBytes) ETV
attr interpolationmode none
attr recordingmode vector(packetBytes)
attr source packetSentToLower
attr title "packets transmitted, packetBytes"
vector 59 Highway5G.gNodeB2.x2ppp[0].queue incomingPacketLengths:vector ETV
attr interpolationmode none
attr recordingmode vector
attr source packetLength(packetPushStarted)
attr title "incoming packet lengths"
attr unit b
vector 60 Highway5G.gNodeB2.x2ppp[0].queue queueingTime:vector ETV
attr interpolationmode none
attr recordingmode vector
attr source queueingTime(packetPulled)
attr title "queueing times"
attr unit s
vector 61 Highway5G.gNodeB2.x2ppp[0].queue outgoingPacketLengths:vector ETV
attr interpolationmode none
attr recordingmode vector
attr source packetLength(packetPulled)
attr title "outgoing packet lengths"
attr unit b
vector 62 Highway5G.gNodeB2.x2ppp[0].ppp rcvdPkFromHl:vector(packetBytes) ETV
attr interpolationmode none
attr recordingmode vector(packetBytes)
attr source packetReceivedFromUpper
attr title "packets received from higher layer, packetBytes"
vector 63 Highway5G.gNodeB2.x2ppp[0].ppp txPk:vector(packetBytes) ETV
attr interpolationmode none
attr recordingmode vector(packetBytes)
attr source packetSentToLower
attr title "packets transmitted, packetBytes"
vector 64 Highway5G.gNodeB2.x2ppp[0].ppp rxPkOk:vector(packetBytes) ETV
attr interpolationmode none
attr recordingmode vector(packetBytes)
attr source rxPkOk
attr title "packets received OK, packetBytes"
vector 65 Highway5G.gNodeB2.x2ppp[0].ppp passedUpPk:vector(packetBytes) ETV
attr interpolationmode none
attr recordingmode vector(packetBytes)
attr source packetSentToUpper
attr title "packets passed to higher layer, packetBytes"
vector 66 Highway5G.gNodeB1.x2ppp[0].ppp rxPkOk:vector(packetBytes) ETV
attr interpolationmode none
attr recordingmode vector(packetBytes)
attr source rxPkOk
attr title "packets received OK, packetBytes"
vector 67 Highway5G.gNodeB1.x2ppp[0].ppp passedUpPk:vector(packetBytes) ETV
attr interpolationmode none
attr recordingmode vector(packetBytes)
attr source packetSentToUpper
attr title "packets passed to higher layer, packetBytes"
vector 68 Highway5G.gNodeB2.sctp "Throughput of Association 69" ETV
vector 69 Highway5G.gNodeB2.sctp "Peer Rwnd 69" ETV
vector 70 Highway5G.gNodeB2.sctp "Fast Recovery State 70:10.0.0.1" ETV
vector 71 Highway5G.gNodeB2.sctp "Fast Recovery State 70:192.168.2.2" ETV
vector 72 Highway5G.gNodeB2.sctp "Fast Recovery State 70:192.168.4.1" ETV
vector 73 Highway5G.gNodeB2.sctp "Fast Recovery State 70:192.168.5.1" ETV
vector 74 Highway5G.gNodeB1.sctp "Throughput of Association 68" ETV
vector 75 Highway5G.gNodeB1.sctp "Peer Rwnd 68" ETV
vector 76 Highway5G.gNodeB1.sctp "Fast Recovery State 71:10.0.0.2" ETV
vector 77 Highway5G.gNodeB1.sctp "Fast Recovery State 71:192.168.3.2" ETV
vector 78 Highway5G.gNodeB1.sctp "Fast Recovery State 71:192.168.4.2" ETV
vector 79 Highway5G.gNodeB1.sctp "Fast Recovery State 71:192.168.6.1" ETV
vector 80 Highway5G.gNodeB1.sctp "Peer Rwnd 49" ETV
vector 81 Highway5G.gNodeB1.sctp "Fast Recovery State 49:10.0.0.2" ETV
vector 82 Highway5G.gNodeB1.sctp "Fast Recovery State 49:192.168.3.2" ETV
vector 83 Highway5G.gNodeB1.sctp "Fast Recovery State 49:192.168.6.1" ETV
vector 84 Highway5G.gNodeB2.sctp "Peer Rwnd 53" ETV
vector 85 Highway5G.gNodeB2.sctp "Fast Recovery State 53:10.0.0.1" ETV
vector 86 Highway5G.gNodeB2.sctp "Fast Recovery State 53:192.168.2.2" ETV
vector 87 Highway5G.gNodeB2.sctp "Fast Recovery State 53:192.168.5.1" ETV
vector 88 Highway5G.gNodeB2.sctp "Slow Start Threshold 70:10.0.0.1" ETV
vector 89 Highway5G.gNodeB2.sctp "Congestion Window 70:10.0.0.1" ETV
vector 90 Highway5G.gNodeB2.sctp "Bandwidth 70:10.0.0.1" ETV
vector 91 Highway5G.gNodeB2.sctp "RTO 70:10.0.0.1" ETV
vector 92 Highway5G.gNodeB2.sctp "Slow Start Threshold 70:192.168.2.2" ETV
vector 93 Highway5G.gNodeB2.sctp "Congestion Window 70:192.168.2.2" ETV
vector 94 Highway5G.gNodeB2.sctp "Bandwidth 70:192.168.2.2" ETV
vector 95 Highway5G.gNodeB2.sctp "RTO 70:192.168.2.2" ETV
vector 96 Highway5G.gNodeB2.sctp "Slow Start Threshold 70:192.168.4.1" ETV
vector 97 Highway5G.gNodeB2.sctp "Congestion Window 70:192.168.4.1" ETV
vector 98 Highway5G.gNodeB2.sctp "Bandwidth 70:192.168.4.1" ETV
vector 99 Highway5G.gNodeB2.sctp "RTO 70:192.168.4.1" ETV
vector 100 Highway5G.gNodeB2.sctp "Slow Start Threshold 70:192.168.5.1" ETV
vector 101 Highway5G.gNodeB2.sctp "Congestion Window 70:192.168.5.1" ETV
vector 102 Highway5G.gNodeB2.sctp "Bandwidth 70:192.168.5.1" ETV
vector 103 Highway5G.gNodeB2.sctp "RTO 70:192.168.5.1" ETV
vector 104 Highway5G.gNodeB1.sctp "Slow Start Threshold 71:10.0.0.2" ETV
vector 105 Highway5G.gNodeB1.sctp "Congestion Window 71:10.0.0.2" ETV
vector 106 Highway5G.gNodeB1.sctp "Bandwidth 71:10.0.0.2" ETV
vector 107 Highway5G.gNodeB1.sctp "RTO 71:10.0.0.2" ETV
vector 108 Highway5G.gNodeB1.sctp "Slow Start Threshold 71:192.168.3.2" ETV
vector 109 Highway5G.gNodeB1.sctp "Congestion Window 71:192.168.3.2" ETV
vector 110 Highway5G.gNodeB1.sctp "Bandwidth 71:192.168.3.2" ETV
vector 111 Highway5G.gNodeB1.sctp "RTO 71:192.168.3.2" ETV
vector 112 Highway5G.gNodeB1.sctp "Slow Start Threshold 71:192.168.4.2" ETV
vector 113 Highway5G.gNodeB1.sctp "Congestion Window 71:192.168.4.2" ETV
vector 114 Highway5G.gNodeB1.sctp "Bandwidth 71:192.168.4.2" ETV
vector 115 Highway5G.gNodeB1.sctp "RTO 71:192.168.4.2" ETV
vector 116 Highway5G.gNodeB1.sctp "Slow Start Threshold 71:192.168.6.1" ETV
vector 117 Highway5G.gNodeB1.sctp "Congestion Window 71:192.168.6.1" ETV
vector 118 Highway5G.gNodeB1.sctp "Bandwidth 71:192.168.6.1" ETV
vector 119 Highway5G.gNodeB1.sctp "RTO 71:192.168.6.1" ETV
vector 120 Highway5G.gNodeB1.sctp "Slow Start Threshold 49:10.0.0.2" ETV
vector 121 Highway5G.gNodeB1.sctp "Congestion Window 49:10.0.0.2" ETV
vector 122 Highway5G.gNodeB1.sctp "Bandwidth 49:10.0.0.2" ETV
vector 123 Highway5G.gNodeB1.sctp "RTO 49:10.0.0.2" ETV
vector 124 Highway5G.gNodeB1.sctp "Slow Start Threshold 49:192.168.3.2" ETV
vector 125 Highway5G.gNodeB1.sctp "Congestion Window 49:192.168.3.2" ETV
vector 126 Highway5G.gNodeB1.sctp "Bandwidth 49:192.168.3.2" ETV
vector 127 Highway5G.gNodeB1.sctp "RTO 49:192.168.3.2" ETV
vector 128 Highway5G.gNodeB1.sctp "Slow Start Threshold 49:192.168.4.2" ETV
vector 129 Highway5G.gNodeB1.sctp "Congestion Window 49:192.168.4.2" ETV
vector 130 Highway5G.gNodeB1.sctp "Bandwidth 49:192.168.4.2" ETV
vector 131 Highway5G.gNodeB1.sctp "RTO 49:192.168.4.2" ETV
vector 132 Highway5G.gNodeB1.sctp "Slow Start Threshold 49:192.168.6.1" ETV
vector 133 Highway5G.gNodeB1.sctp "Congestion Window 49:192.168.6.1" ETV
vector 134 Highway5G.gNodeB1.sctp "Bandwidth 49:192.168.6.1" ETV
vector 135 Highway5G.gNodeB1.sctp "RTO 49:192.168.6.1" ETV
vector 136 Highway5G.gNodeB2.sctp "Slow Start Threshold 53:10.0.0.1" ETV
vector 137 Highway5G.gNodeB2.sctp "Congestion Window 53:10.0.0.1" ETV
vector 138 Highway5G.gNodeB2.sctp "Bandwidth 53:10.0.0.1" ETV
vector 139 Highway5G.gNodeB2.sctp "RTO 53:10.0.0.1" ETV
vector 140 Highway5G.gNodeB2.sctp "Slow Start Threshold 53:192.168.2.2" ETV
vector 141 Highway5G.gNodeB2.sctp "Congestion Window 53:192.168.2.2" ETV
vector 142 Highway5G.gNodeB2.sctp "Bandwidth 53:192.168.2.2" ETV
vector 143 Highway5G.gNodeB2.sctp "RTO 53:192.168.2.2" ETV
vector 144 Highway5G.gNodeB2.sctp "Slow Start Threshold 53:192.168.4.1" ETV
vector 145 Highway5G.gNodeB2.sctp "Congestion Window 53:192.168.4.1" ETV
vector 146 Highway5G.gNodeB2.sctp "Bandwidth 53:192.168.4.1" ETV
vector 147 Highway5G.gNodeB2.sctp "RTO 53:192.168.4.1" ETV
vector 148 Highway5G.gNodeB2.sctp "Slow Start Threshold 53:192.168.5.1" ETV
vector 149 Highway5G.gNodeB2.sctp "Congestion Window 53:192.168.5.1" ETV
vector 150 Highway5G.gNodeB2.sctp "Bandwidth 53:192.168.5.1" ETV
vector 151 Highway5G.gNodeB2.sctp "RTO 53:192.168.5.1" ETV
vector 152 Highway5G.gNodeB1.cellularNic.mac avgServedBlocksUl:vector ETV
attr recordingmode vector
attr source avgServedBlocksUl
attr title "Avg Served Blocks Ul"
attr unit blocks
vector 153 Highway5G.gNodeB1.cellularNic.mac avgServedBlocksDl:vector ETV
attr recordingmode vector
attr source avgServedBlocksDl
attr title "Avg Served Blocks Dl"
attr unit blocks
vector 154 Highway5G.gNodeB2.cellularNic.mac avgServedBlocksUl:vector ETV
attr recordingmode vector
attr source avgServedBlocksUl
attr title "Avg Served Blocks Ul"
attr unit blocks
vector 155 Highway5G.gNodeB2.cellularNic.mac avgServedBlocksDl:vector ETV
attr recordingmode vector
attr source avgServedBlocksDl
attr title "Avg Served Blocks Dl"
attr unit blocks
vector 156 Highway5G.car[0].udp passedUpPk:vector(count) ETV
attr interpolationmode none
attr recordingmode vector(count)
attr source packetSentToUpper
attr title "packets passed up, count"
vector 157 Highway5G.car[0].udp droppedPkWrongPort:vector(count) ETV
attr interpolationmode none
attr recordingmode vector(count)
attr source packetDropReasonIsNoPortFound(packetDropped)
attr title "packets dropped (wrong port), count"
vector 158 Highway5G.car[0].udp droppedPkBadChecksum:vector(count) ETV
attr interpolationmode none
attr recordingmode vector(count)
attr source packetDropReasonIsIncorrectlyReceived(packetDropped)
attr title "packets dropped (checksum error), count"
vector 159 Highway5G.car[0].cellularNic.phy servingCell:vector ETV
attr recordingmode vector
attr source servingCell
attr title "ID of the serving eNodeB for the UE"
attr unit ""
vector 160 Highway5G.car[0].cellularNic.nrChannelModel[0] distance:vector ETV
attr recordingmode vector
attr source distance
attr title "distance between UE and serving base station"
attr unit meters
vector 161 Highway5G.car[0].cellularNic.nrPhy servingCell:vector ETV
attr recordingmode vector
attr source servingCell
attr title "ID of the serving eNodeB for the UE"
attr unit ""
vector 162 Highway5G.car[0].app[0] voIPGeneratedThroughput:vector ETV
attr recordingmode vector
attr source voIPGeneratedThroughput
attr title "Throughput generated by the application"
attr unit Bps
vector 163 Highway5G.car[0].udp packetSent:vector(packetBytes) ETV
attr interpolationmode none
attr recordingmode vector(packetBytes)
attr source packetSent
attr title "packets sent, packetBytes"
vector 164 Highway5G.car[0].cellularNic.pdcpRrc receivedPacketFromUpperLayer:vector(packetBytes) ETV
attr interpolationmode none
attr recordingmode vector(packetBytes)
attr source receivedPacketFromUpperLayer
vector 165 Highway5G.car[0].cellularNic.pdcpRrc sentPacketToLowerLayer:vector(packetBytes) ETV
attr interpolationmode none
attr recordingmode vector(packetBytes)
attr source sentPacketToLowerLayer
vector 166 Highway5G.car[0].cellularNic.nrRlc.um receivedPacketFromUpperLayer:vector(packetBytes) ETV
attr interpolationmode none
attr recordingmode vector(packetBytes)
attr source receivedPacketFromUpperLayer
vector 167 Highway5G.car[0].cellularNic.nrMac receivedPacketFromUpperLayer:vector(packetBytes) ETV
attr interpolationmode none
attr recordingmode vector(packetBytes)
attr source receivedPacketFromUpperLayer
vector 168 Highway5G.car[0].cellularNic.nrMac sentPacketToLowerLayer:vector(packetBytes) ETV
attr interpolationmode none
attr recordingmode vector(packetBytes)
attr source sentPacketToLowerLayer
vector 169 Highway5G.car[0].cellularNic.nrChannelModel[0] measuredSinrUl:vector ETV
attr recordingmode vector
attr source measuredSinrUl
attr title "SINR measured at feedback computation, UL"
attr unit dB
vector 170 Highway5G.car[0].cellularNic.nrChannelModel[0] measuredSinrDl:vector ETV
attr recordingmode vector
attr source measuredSinrDl
attr title "SINR measured at feedback computation, DL"
attr unit dB
vector 171 Highway5G.gNodeB2.cellularNic.mac receivedPacketFromLowerLayer:vector(packetBytes) ETV
attr interpolationmode none
attr recordingmode vector(packetBytes)
attr source receivedPacketFromLowerLayer
vector 172 Highway5G.gNodeB2.cellularNic.mac sentPacketToLowerLayer:vector(packetBytes) ETV
attr interpolationmode none
attr recordingmode vector(packetBytes)
attr source sentPacketToLowerLayer
vector 173 Highway5G.car[0].cellularNic.nrMac receivedPacketFromLowerLayer:vector(packetBytes) ETV
attr interpolationmode none
attr recordingmode vector(packetBytes)
attr source receivedPacketFromLowerLayer
vector 174 Highway5G.car[0].cellularNic.nrMac sentPacketToUpperLayer:vector(packetBytes) ETV
attr interpolationmode none
attr recordingmode vector(packetBytes)
attr source sentPacketToUpperLayer
vector 175 Highway5G.car[0].cellularNic.nrRlc.um rlcPacketLossUl:vector ETV
attr recordingmode vector
attr source rlcPacketLossUl
attr title "rlc Packet Loss"
attr unit ""
vector 176 Highway5G.car[0].cellularNic.nrRlc.um sentPacketToLowerLayer:vector(packetBytes) ETV
attr interpolationmode none
attr recordingmode vector(packetBytes)
attr source sentPacketToLowerLayer
vector 177 Highway5G.car[0].cellularNic.nrPhy averageCqiUl:vector ETV
attr recordingmode vector
attr source averageCqiUl
attr title "Average Cqi reported in UL"
attr unit cqi
vector 178 Highway5G.car[0].cellularNic.nrChannelModel[0] rcvdSinrUl:vector ETV
attr recordingmode vector
attr source rcvdSinrUl
attr title "SINR measured at packet reception, UL"
attr unit dB
vector 179 Highway5G.car[0].cellularNic.nrMac macDelayUl:vector ETV
attr recordingmode vector
attr source macDelayUl
attr title "Delay at the MAC layer UL"
attr unit s
vector 180 Highway5G.gNodeB2.cellularNic.mac sentPacketToUpperLayer:vector(packetBytes) ETV
attr interpolationmode none
attr recordingmode vector(packetBytes)
attr source sentPacketToUpperLayer
vector 181 Highway5G.gNodeB2.cellularNic.rlc.um receivedPacketFromLowerLayer:vector(packetBytes) ETV
attr interpolationmode none
attr recordingmode vector(packetBytes)
attr source receivedPacketFromLowerLayer
vector 182 Highway5G.car[0].cellularNic.nrRlc.um rlcPduThroughputUl:vector ETV
attr recordingmode vector
attr source rlcPduThroughputUl
attr title "Throughput at the rlc layer UL"
attr unit Bps
vector 183 Highway5G.car[0].cellularNic.nrRlc.um rlcPduDelayUl:vector ETV
attr recordingmode vector
attr source rlcPduDelayUl
attr title "Delay at the rlc layer UL"
attr unit s
vector 184 Highway5G.car[0].cellularNic.nrRlc.um rlcThroughputUl:vector ETV
attr recordingmode vector
attr source rlcThroughputUl
attr title "Throughput at the rlc layer UL"
attr unit Bps
vector 185 Highway5G.car[0].cellularNic.nrRlc.um rlcPacketLossTotal:vector ETV
attr recordingmode vector
attr source rlcPacketLossTotal
attr title "rlc Packet Loss"
attr unit ""
vector 186 Highway5G.car[0].cellularNic.nrRlc.um rlcDelayUl:vector ETV
attr recordingmode vector
attr source rlcDelayUl
attr title "Delay at the rlc layer UL"
attr unit s
vector 187 Highway5G.gNodeB2.cellularNic.rlc.um sentPacketToUpperLayer:vector(packetBytes) ETV
attr interpolationmode none
attr recordingmode vector(packetBytes)
attr source sentPacketToUpperLayer
vector 188 Highway5G.car[0].cellularNic.nrRlc.um rlcPduPacketLossUl:vector ETV
attr recordingmode vector
attr source rlcPduPacketLossUl
attr title "rlc Packet Loss"
attr unit ""
vector 189 Highway5G.gNodeB2.cellularNic.pdcpRrc receivedPacketFromLowerLayer:vector(packetBytes) ETV
attr interpolationmode none
attr recordingmode vector(packetBytes)
attr source receivedPacketFromLowerLayer
vector 190 Highway5G.gNodeB2.cellularNic.pdcpRrc sentPacketToUpperLayer:vector(packetBytes) ETV
attr interpolationmode none
attr recordingmode vector(packetBytes)
attr source sentPacketToUpperLayer
vector 191 Highway5G.gNodeB2.udp packetSent:vector(packetBytes) ETV
attr interpolationmode none
attr recordingmode vector(packetBytes)
attr source packetSent
attr title "packets sent, packetBytes"
vector 192 Highway5G.gNodeB2.pppIf.queue incomingPacketLengths:vector ETV
attr interpolationmode none
attr recordingmode vector
attr source packetLength(packetPushStarted)
attr title "incoming packet lengths"
attr unit b
vector 193 Highway5G.gNodeB2.pppIf.queue incomingDataRate:vector ETV
attr interpolationmode linear
attr recordingmode vector
attr source throughput(packetPushStarted)
attr title "incoming datarate"
attr unit bps
vector 194 Highway5G.gNodeB2.pppIf.queue queueingTime:vector ETV
attr interpolationmode none
attr recordingmode vector
attr source queueingTime(packetPulled)
attr title "queueing times"
attr unit s
vector 195 Highway5G.gNodeB2.pppIf.queue outgoingPacketLengths:vector ETV
attr interpolationmode none
attr recordingmode vector
attr source packetLength(packetPulled)
attr title "outgoing packet lengths"
attr unit b
vector 196 Highway5G.gNodeB2.pppIf.queue outgoingDataRate:vector ETV
attr interpolationmode linear
attr recordingmode vector
attr source throughput(packetPulled)
attr title "outgoing datarate"
attr unit bps
vector 197 Highway5G.gNodeB2.pppIf.ppp rcvdPkFromHl:vector(packetBytes) ETV
attr interpolationmode none
attr recordingmode vector(packetBytes)
attr source packetReceivedFromUpper
attr title "packets received from higher layer, packetBytes"
vector 198 Highway5G.gNodeB2.pppIf.ppp txPk:vector(packetBytes) ETV
attr interpolationmode none
attr recordingmode vector(packetBytes)
attr source packetSentToLower
attr title "packets transmitted, packetBytes"
vector 199 Highway5G.upf.ppp[1].ppp rxPkOk:vector(packetBytes) ETV
attr interpolationmode none
attr recordingmode vector(packetBytes)
attr source rxPkOk
attr title "packets received OK, packetBytes"
vector 200 Highway5G.upf.ppp[1].ppp passedUpPk:vector(packetBytes) ETV
attr interpolationmode none
attr recordingmode vector(packetBytes)
attr source packetSentToUpper
attr title "packets passed to higher layer, packetBytes"
vector 201 Highway5G.upf.udp packetReceived:vector(packetBytes) ETV
attr interpolationmode none
attr recordingmode vector(packetBytes)
attr source packetReceived
attr title "packets received, packetBytes"
vector 202 Highway5G.upf.pppIf.queue incomingPacketLengths:vector ETV
attr interpolationmode none
attr recordingmode vector
attr source packetLength(packetPushStarted)
attr title "incoming packet lengths"
attr unit b
vector 203 Highway5G.upf.pppIf.queue incomingDataRate:vector ETV
attr interpolationmode linear
attr recordingmode vector
attr source throughput(packetPushStarted)
attr title "incoming datarate"
attr unit bps
vector 204 Highway5G.upf.pppIf.queue queueingTime:vector ETV
attr interpolationmode none
attr recordingmode vector
attr source queueingTime(packetPulled)
attr title "queueing times"
attr unit s
vector 205 Highway5G.upf.pppIf.queue outgoingPacketLengths:vector ETV
attr interpolationmode none
attr recordingmode vector
attr source packetLength(packetPulled)
attr title "outgoing packet lengths"
attr unit b
vector 206 Highway5G.upf.pppIf.queue outgoingDataRate:vector ETV
attr interpolationmode linear
attr recordingmode vector
attr source throughput(packetPulled)
attr title "outgoing datarate"
attr unit bps
vector 207 Highway5G.upf.pppIf.ppp rcvdPkFromHl:vector(packetBytes) ETV
attr interpolationmode none
attr recordingmode vector(packetBytes)
attr source packetReceivedFromUpper
attr title "packets received from higher layer, packetBytes"
vector 208 Highway5G.upf.pppIf.ppp txPk:vector(packetBytes) ETV
attr interpolationmode none
attr recordingmode vector(packetBytes)
attr source packetSentToLower
attr title "packets transmitted, packetBytes"
vector 209 Highway5G.router.ppp[1].ppp rxPkOk:vector(packetBytes) ETV
attr interpolationmode none
attr recordingmode vector(packetBytes)
attr source rxPkOk
attr title "packets received OK, packetBytes"
vector 210 Highway5G.router.ppp[1].ppp passedUpPk:vector(packetBytes) ETV
attr interpolationmode none
attr recordingmode vector(packetBytes)
attr source packetSentToUpper
attr title "packets passed to higher layer, packetBytes"
vector 211 Highway5G.router.ppp[0].queue incomingPacketLengths:vector ETV
attr interpolationmode none
attr recordingmode vector
attr source packetLength(packetPushStarted)
attr title "incoming packet lengths"
attr unit b
vector 212 Highway5G.router.ppp[0].queue incomingDataRate:vector ETV
attr interpolationmode linear
attr recordingmode vector
attr source throughput(packetPushStarted)
attr title "incoming datarate"
attr unit bps
vector 213 Highway5G.router.ppp[0].queue queueingTime:vector ETV
attr interpolationmode none
attr recordingmode vector
attr source queueingTime(packetPulled)
attr title "queueing times"
attr unit s
vector 214 Highway5G.router.ppp[0].queue outgoingPacketLengths:vector ETV
attr interpolationmode none
attr recordingmode vector
attr source packetLength(packetPulled)
attr title "outgoing packet lengths"
attr unit b
vector 215 Highway5G.router.ppp[0].queue outgoingDataRate:vector ETV
attr interpolationmode linear
attr recordingmode vector
attr source throughput(packetPulled)
attr title "outgoing datarate"
attr unit bps
vector 216 Highway5G.router.ppp[0].ppp rcvdPkFromHl:vector(packetBytes) ETV
attr interpolationmode none
attr recordingmode vector(packetBytes)
attr source packetReceivedFromUpper
attr title "packets received from higher layer, packetBytes"
vector 217 Highway5G.router.ppp[0].ppp txPk:vector(packetBytes) ETV
attr interpolationmode none
attr recordingmode vector(packetBytes)
attr source packetSentToLower
attr title "packets transmitted, packetBytes"
vector 218 Highway5G.server.ppp[0].ppp rxPkOk:vector(packetBytes) ETV
attr interpolationmode none
attr recordingmode vector(packetBytes)
attr source rxPkOk
attr title "packets received OK, packetBytes"
vector 219 Highway5G.server.ppp[0].ppp passedUpPk:vector(packetBytes) ETV
attr interpolationmode none
attr recordingmode vector(packetBytes)
attr source packetSentToUpper
attr title "packets passed to higher layer, packetBytes"
vector 220 Highway5G.server.udp packetReceived:vector(packetBytes) ETV
attr interpolationmode none
attr recordingmode vector(packetBytes)
attr source packetReceived
attr title "packets received, packetBytes"
vector 221 Highway5G.server.app[0] voIPReceivedThroughput:vector ETV
attr recordingmode vector
attr source voIPReceivedThroughput
attr title "Throughput received at the application level"
attr unit Bps
vector 222 Highway5G.car[0].cellularNic.nrMac harqErrorRate_1st_Ul:vector ETV
attr recordingmode vector
attr source harqErrorRate_1st_Ul
attr title "Harq Error Rate Ul (1st tx)"
attr unit ""
vector 223 Highway5G.car[0].cellularNic.nrMac harqErrorRateUl:vector ETV
attr recordingmode vector
attr source harqErrorRateUl
attr title "Harq Error Rate Ul"
attr unit ""
vector 224 Highway5G.car[0].cellularNic.nrMac harqTxAttemptsUl:vector ETV
attr recordingmode vector
attr source harqTxAttemptsUl
attr title "Harq Tx Attempts Ul"
attr unit ""
vector 225 Highway5G.car[0].cellularNic.nrMac harqErrorRate_2nd_Ul:vector ETV
attr recordingmode vector
attr source harqErrorRate_2nd_Ul
attr title "Harq Error Rate Ul (2nd tx)"
attr unit ""
vector 226 Highway5G.car[1].udp passedUpPk:vector(count) ETV
attr interpolationmode none
attr recordingmode vector(count)
attr source packetSentToUpper
attr title "packets passed up, count"
vector 227 Highway5G.car[1].udp droppedPkWrongPort:vector(count) ETV
attr interpolationmode none
attr recordingmode vector(count)
attr source packetDropReasonIsNoPortFound(packetDropped)
attr title "packets dropped (wrong port), count"
vector 228 Highway5G.car[1].udp droppedPkBadChecksum:vector(count) ETV
attr interpolationmode none
attr recordingmode vector(count)
attr source packetDropReasonIsIncorrectlyReceived(packetDropped)
attr title "packets dropped (checksum error), count"
vector 229 Highway5G.car[1].cellularNic.phy servingCell:vector ETV
attr recordingmode vector
attr source servingCell
attr title "ID of the serving eNodeB for the UE"
attr unit ""
vector 230 Highway5G.car[1].cellularNic.nrChannelModel[0] distance:vector ETV
attr recordingmode vector
attr source distance
attr title "distance between UE and serving base station"
attr unit meters
vector 231 Highway5G.car[1].cellularNic.nrPhy servingCell:vector ETV
attr recordingmode vector
attr source servingCell
attr title "ID of the serving eNodeB for the UE"
attr unit ""
vector 232 Highway5G.car[1].app[0] voIPGeneratedThroughput:vector ETV
attr recordingmode vector
attr source voIPGeneratedThroughput
attr title "Throughput generated by the application"
attr unit Bps
vector 233 Highway5G.car[1].udp packetSent:vector(packetBytes) ETV
attr interpolationmode none
attr recordingmode vector(packetBytes)
attr source packetSent
attr title "packets sent, packetBytes"
vector 234 Highway5G.car[1].cellularNic.pdcpRrc receivedPacketFromUpperLayer:vector(packetBytes) ETV
attr interpolationmode none
attr recordingmode vector(packetBytes)
attr source receivedPacketFromUpperLayer
vector 235 Highway5G.car[1].cellularNic.pdcpRrc sentPacketToLowerLayer:vector(packetBytes) ETV
attr interpolationmode none
attr recordingmode vector(packetBytes)
attr source sentPacketToLowerLayer
vector 236 Highway5G.car[1].cellularNic.nrRlc.um receivedPacketFromUpperLayer:vector(packetBytes) ETV
attr interpolationmode none
attr recordingmode vector(packetBytes)
attr source receivedPacketFromUpperLayer
vector 237 Highway5G.car[1].cellularNic.nrMac receivedPacketFromUpperLayer:vector(packetBytes) ETV
attr interpolationmode none
attr recordingmode vector(packetBytes)
attr source receivedPacketFromUpperLayer
vector 238 Highway5G.car[1].cellularNic.nrMac sentPacketToLowerLayer:vector(packetBytes) ETV
attr interpolationmode none
attr recordingmode vector(packetBytes)
attr source sentPacketToLowerLayer
vector 239 Highway5G.car[1].cellularNic.nrChannelModel[0] measuredSinrUl:vector ETV
attr recordingmode vector
attr source measuredSinrUl
attr title "SINR measured at feedback computation, UL"
attr unit dB
vector 240 Highway5G.car[1].cellularNic.nrChannelModel[0] measuredSinrDl:vector ETV
attr recordingmode vector
attr source measuredSinrDl
attr title "SINR measured at feedback computation, DL"
attr unit dB
vector 241 Highway5G.car[1].cellularNic.nrMac receivedPacketFromLowerLayer:vector(packetBytes) ETV
attr interpolationmode none
attr recordingmode vector(packetBytes)
attr source receivedPacketFromLowerLayer
vector 242 Highway5G.car[1].cellularNic.nrMac sentPacketToUpperLayer:vector(packetBytes) ETV
attr interpolationmode none
attr recordingmode vector(packetBytes)
attr source sentPacketToUpperLayer
vector 243 Highway5G.car[1].cellularNic.nrRlc.um rlcPacketLossUl:vector ETV
attr recordingmode vector
attr source rlcPacketLossUl
attr title "rlc Packet Loss"
attr unit ""
vector 244 Highway5G.car[1].cellularNic.nrRlc.um sentPacketToLowerLayer:vector(packetBytes) ETV
attr interpolationmode none
attr recordingmode vector(packetBytes)
attr source sentPacketToLowerLayer
vector 245 Highway5G.car[1].cellularNic.nrPhy averageCqiUl:vector ETV
attr recordingmode vector
attr source averageCqiUl
attr title "Average Cqi reported in UL"
attr unit cqi
vector 246 Highway5G.car[1].cellularNic.nrChannelModel[0] rcvdSinrUl:vector ETV
attr recordingmode vector
attr source rcvdSinrUl
attr title "SINR measured at packet reception, UL"
attr unit dB
vector 247 Highway5G.car[1].cellularNic.nrMac macDelayUl:vector ETV
attr recordingmode vector
attr source macDelayUl
attr title "Delay at the MAC layer UL"
attr unit s
vector 248 Highway5G.car[1].cellularNic.nrRlc.um rlcPduThroughputUl:vector ETV
attr recordingmode vector
attr source rlcPduThroughputUl
attr title "Throughput at the rlc layer UL"
attr unit Bps
vector 249 Highway5G.car[1].cellularNic.nrRlc.um rlcPduDelayUl:vector ETV
attr recordingmode vector
attr source rlcPduDelayUl
attr title "Delay at the rlc layer UL"
attr unit s
vector 250 Highway5G.car[1].cellularNic.nrRlc.um rlcThroughputUl:vector ETV
attr recordingmode vector
attr source rlcThroughputUl
attr title "Throughput at the rlc layer UL"
attr unit Bps
vector 251 Highway5G.car[1].cellularNic.nrRlc.um rlcPacketLossTotal:vector ETV
attr recordingmode vector
attr source rlcPacketLossTotal
attr title "rlc Packet Loss"
attr unit ""
vector 252 Highway5G.car[1].cellularNic.nrRlc.um rlcDelayUl:vector ETV
attr recordingmode vector
attr source rlcDelayUl
attr title "Delay at the rlc layer UL"
attr unit s
vector 253 Highway5G.car[1].cellularNic.nrRlc.um rlcPduPacketLossUl:vector ETV
attr recordingmode vector
attr source rlcPduPacketLossUl
attr title "rlc Packet Loss"
attr unit ""
vector 254 Highway5G.server.app[1] voIPReceivedThroughput:vector ETV
attr recordingmode vector
attr source voIPReceivedThroughput
attr title "Throughput received at the application level"
attr unit Bps
vector 255 Highway5G.car[1].cellularNic.nrMac harqErrorRate_1st_Ul:vector ETV
attr recordingmode vector
attr source harqErrorRate_1st_Ul
attr title "Harq Error Rate Ul (1st tx)"
attr unit ""
vector 256 Highway5G.car[1].cellularNic.nrMac harqErrorRateUl:vector ETV
attr recordingmode vector
attr source harqErrorRateUl
attr title "Harq Error Rate Ul"
attr unit ""
vector 257 Highway5G.car[1].cellularNic.nrMac harqTxAttemptsUl:vector ETV
attr recordingmode vector
attr source harqTxAttemptsUl
attr title "Harq Tx Attempts Ul"
attr unit ""
vector 258 Highway5G.car[2].udp passedUpPk:vector(count) ETV
attr interpolationmode none
attr recordingmode vector(count)
attr source packetSentToUpper
attr title "packets passed up, count"
vector 259 Highway5G.car[2].udp droppedPkWrongPort:vector(count) ETV
attr interpolationmode none
attr recordingmode vector(count)
attr source packetDropReasonIsNoPortFound(packetDropped)
attr title "packets dropped (wrong port), count"
vector 260 Highway5G.car[2].udp droppedPkBadChecksum:vector(count) ETV
attr interpolationmode none
attr recordingmode vector(count)
attr source packetDropReasonIsIncorrectlyReceived(packetDropped)
attr title "packets dropped (checksum error), count"
vector 261 Highway5G.car[2].cellularNic.phy servingCell:vector ETV
attr recordingmode vector
attr source servingCell
attr title "ID of the serving eNodeB for the UE"
attr unit ""
vector 262 Highway5G.car[2].cellularNic.nrChannelModel[0] distance:vector ETV
attr recordingmode vector
attr source distance
attr title "distance between UE and serving base station"
attr unit meters
vector 263 Highway5G.car[2].cellularNic.nrPhy servingCell:vector ETV
attr recordingmode vector
attr source servingCell
attr title "ID of the serving eNodeB for the UE"
attr unit ""
vector 264 Highway5G.car[3].udp passedUpPk:vector(count) ETV
attr interpolationmode none
attr recordingmode vector(count)
attr source packetSentToUpper
attr title "packets passed up, count"
vector 265 Highway5G.car[3].udp droppedPkWrongPort:vector(count) ETV
attr interpolationmode none
attr recordingmode vector(count)
attr source packetDropReasonIsNoPortFound(packetDropped)
attr title "packets dropped (wrong port), count"
vector 266 Highway5G.car[3].udp droppedPkBadChecksum:vector(count) ETV
attr interpolationmode none
attr recordingmode vector(count)
attr source packetDropReasonIsIncorrectlyReceived(packetDropped)
attr title "packets dropped (checksum error), count"
vector 267 Highway5G.car[3].cellularNic.phy servingCell:vector ETV
attr recordingmode vector
attr source servingCell
attr title "ID of the serving eNodeB for the UE"
attr unit ""
vector 268 Highway5G.car[3].cellularNic.nrChannelModel[0] distance:vector ETV
attr recordingmode vector
attr source distance
attr title "distance between UE and serving base station"
attr unit meters
vector 269 Highway5G.car[3].cellularNic.nrPhy servingCell:vector ETV
attr recordingmode vector
attr source servingCell
attr title "ID of the serving eNodeB for the UE"
attr unit ""
vector 270 Highway5G.car[2].app[0] voIPGeneratedThroughput:vector ETV
attr recordingmode vector
attr source voIPGeneratedThroughput
attr title "Throughput generated by the application"
attr unit Bps
vector 271 Highway5G.car[3].app[0] voIPGeneratedThroughput:vector ETV
attr recordingmode vector
attr source voIPGeneratedThroughput
attr title "Throughput generated by the application"
attr unit Bps
vector 272 Highway5G.car[2].udp packetSent:vector(packetBytes) ETV
attr interpolationmode none
attr recordingmode vector(packetBytes)
attr source packetSent
attr title "packets sent, packetBytes"
vector 273 Highway5G.car[3].udp packetSent:vector(packetBytes) ETV
attr interpolationmode none
attr recordingmode vector(packetBytes)
attr source packetSent
attr title "packets sent, packetBytes"
vector 274 Highway5G.car[2].cellularNic.pdcpRrc receivedPacketFromUpperLayer:vector(packetBytes) ETV
attr interpolationmode none
attr recordingmode vector(packetBytes)
attr source receivedPacketFromUpperLayer
vector 275 Highway5G.car[2].cellularNic.pdcpRrc sentPacketToLowerLayer:vector(packetBytes) ETV
attr interpolationmode none
attr recordingmode vector(packetBytes)
attr source sentPacketToLowerLayer
vector 276 Highway5G.car[3].cellularNic.pdcpRrc receivedPacketFromUpperLayer:vector(packetBytes) ETV
attr interpolationmode none
attr recordingmode vector(packetBytes)
attr source receivedPacketFromUpperLayer
vector 277 Highway5G.car[3].cellularNic.pdcpRrc sentPacketToLowerLayer:vector(packetBytes) ETV
attr interpolationmode none
attr recordingmode vector(packetBytes)
attr source sentPacketToLowerLayer
vector 278 Highway5G.car[2].cellularNic.nrRlc.um receivedPacketFromUpperLayer:vector(packetBytes) ETV
attr interpolationmode none
attr recordingmode vector(packetBytes)
attr source receivedPacketFromUpperLayer
vector 279 Highway5G.car[3].cellularNic.nrRlc.um receivedPacketFromUpperLayer:vector(packetBytes) ETV
attr interpolationmode none
attr recordingmode vector(packetBytes)
attr source receivedPacketFromUpperLayer
vector 280 Highway5G.car[2].cellularNic.nrMac receivedPacketFromUpperLayer:vector(packetBytes) ETV
attr interpolationmode none
attr recordingmode vector(packetBytes)
attr source receivedPacketFromUpperLayer
vector 281 Highway5G.car[3].cellularNic.nrMac receivedPacketFromUpperLayer:vector(packetBytes) ETV
attr interpolationmode none
attr recordingmode vector(packetBytes)
attr source receivedPacketFromUpperLayer
vector 282 Highway5G.car[2].cellularNic.nrMac sentPacketToLowerLayer:vector(packetBytes) ETV
attr interpolationmode none
attr recordingmode vector(packetBytes)
attr source sentPacketToLowerLayer
vector 283 Highway5G.car[3].cellularNic.nrMac sentPacketToLowerLayer:vector(packetBytes) ETV
attr interpolationmode none
attr recordingmode vector(packetBytes)
attr source sentPacketToLowerLayer
vector 284 Highway5G.car[2].cellularNic.nrChannelModel[0] measuredSinrUl:vector ETV
attr recordingmode vector
attr source measuredSinrUl
attr title "SINR measured at feedback computation, UL"
attr unit dB
vector 285 Highway5G.car[2].cellularNic.nrChannelModel[0] measuredSinrDl:vector ETV
attr recordingmode vector
attr source measuredSinrDl
attr title "SINR measured at feedback computation, DL"
attr unit dB
vector 286 Highway5G.gNodeB1.cellularNic.mac receivedPacketFromLowerLayer:vector(packetBytes) ETV
attr interpolationmode none
attr recordingmode vector(packetBytes)
attr source receivedPacketFromLowerLayer
vector 287 Highway5G.car[3].cellularNic.nrChannelModel[0] measuredSinrUl:vector ETV
attr recordingmode vector
attr source measuredSinrUl
attr title "SINR measured at feedback computation, UL"
attr unit dB
vector 288 Highway5G.car[3].cellularNic.nrChannelModel[0] measuredSinrDl:vector ETV
attr recordingmode vector
attr source measuredSinrDl
attr title "SINR measured at feedback computation, DL"
attr unit dB
vector 289 Highway5G.gNodeB1.cellularNic.mac sentPacketToLowerLayer:vector(packetBytes) ETV
attr interpolationmode none
attr recordingmode vector(packetBytes)
attr source sentPacketToLowerLayer
vector 290 Highway5G.car[2].cellularNic.nrMac receivedPacketFromLowerLayer:vector(packetBytes) ETV
attr interpolationmode none
attr recordingmode vector(packetBytes)
attr source receivedPacketFromLowerLayer
vector 291 Highway5G.car[3].cellularNic.nrMac receivedPacketFromLowerLayer:vector(packetBytes) ETV
attr interpolationmode none
attr recordingmode vector(packetBytes)
attr source receivedPacketFromLowerLayer
vector 292 Highway5G.car[2].cellularNic.nrMac sentPacketToUpperLayer:vector(packetBytes) ETV
attr interpolationmode none
attr recordingmode vector(packetBytes)
attr source sentPacketToUpperLayer
vector 293 Highway5G.car[2].cellularNic.nrRlc.um rlcPacketLossUl:vector ETV
attr recordingmode vector
attr source rlcPacketLossUl
attr title "rlc Packet Loss"
attr unit ""
vector 294 Highway5G.car[2].cellularNic.nrRlc.um sentPacketToLowerLayer:vector(packetBytes) ETV
attr interpolationmode none
attr recordingmode vector(packetBytes)
attr source sentPacketToLowerLayer
vector 295 Highway5G.car[3].cellularNic.nrMac sentPacketToUpperLayer:vector(packetBytes) ETV
attr interpolationmode none
attr recordingmode vector(packetBytes)
attr source sentPacketToUpperLayer
vector 296 Highway5G.car[3].cellularNic.nrRlc.um rlcPacketLossUl:vector ETV
attr recordingmode vector
attr source rlcPacketLossUl
attr title "rlc Packet Loss"
attr unit ""
vector 297 Highway5G.car[3].cellularNic.nrRlc.um sentPacketToLowerLayer:vector(packetBytes) ETV
attr interpolationmode none
attr recordingmode vector(packetBytes)
attr source sentPacketToLowerLayer
vector 298 Highway5G.car[2].cellularNic.nrPhy averageCqiUl:vector ETV
attr recordingmode vector
attr source averageCqiUl
attr title "Average Cqi reported in UL"
attr unit cqi
vector 299 Highway5G.car[3].cellularNic.nrPhy averageCqiUl:vector ETV
attr recordingmode vector
attr source averageCqiUl
attr title "Average Cqi reported in UL"
attr unit cqi
vector 300 Highway5G.car[2].cellularNic.nrChannelModel[0] rcvdSinrUl:vector ETV
attr recordingmode vector
attr source rcvdSinrUl
attr title "SINR measured at packet reception, UL"
attr unit dB
vector 301 Highway5G.car[3].cellularNic.nrChannelModel[0] rcvdSinrUl:vector ETV
attr recordingmode vector
attr source rcvdSinrUl
attr title "SINR measured at packet reception, UL"
attr unit dB
vector 302 Highway5G.car[2].cellularNic.nrMac macDelayUl:vector ETV
attr recordingmode vector
attr source macDelayUl
attr title "Delay at the MAC layer UL"
attr unit s
vector 303 Highway5G.gNodeB1.cellularNic.mac sentPacketToUpperLayer:vector(packetBytes) ETV
attr interpolationmode none
attr recordingmode vector(packetBytes)
attr source sentPacketToUpperLayer
vector 304 Highway5G.car[3].cellularNic.nrMac macDelayUl:vector ETV
attr recordingmode vector
attr source macDelayUl
attr title "Delay at the MAC layer UL"
attr unit s
vector 305 Highway5G.gNodeB1.cellularNic.rlc.um receivedPacketFromLowerLayer:vector(packetBytes) ETV
attr interpolationmode none
attr recordingmode vector(packetBytes)
attr source receivedPacketFromLowerLayer
vector 306 Highway5G.car[2].cellularNic.nrRlc.um rlcPduThroughputUl:vector ETV
attr recordingmode vector
attr source rlcPduThroughputUl
attr title "Throughput at the rlc layer UL"
attr unit Bps
vector 307 Highway5G.car[2].cellularNic.nrRlc.um rlcPduDelayUl:vector ETV
attr recordingmode vector
attr source rlcPduDelayUl
attr title "Delay at the rlc layer UL"
attr unit s
vector 308 Highway5G.car[2].cellularNic.nrRlc.um rlcThroughputUl:vector ETV
attr recordingmode vector
attr source rlcThroughputUl
attr title "Throughput at the rlc layer UL"
attr unit Bps
vector 309 Highway5G.car[2].cellularNic.nrRlc.um rlcPacketLossTotal:vector ETV
attr recordingmode vector
attr source rlcPacketLossTotal
attr title "rlc Packet Loss"
attr unit ""
vector 310 Highway5G.car[2].cellularNic.nrRlc.um rlcDelayUl:vector ETV
attr recordingmode vector
attr source rlcDelayUl
attr title "Delay at the rlc layer UL"
attr unit s
vector 311 Highway5G.gNodeB1.cellularNic.rlc.um sentPacketToUpperLayer:vector(packetBytes) ETV
attr interpolationmode none
attr recordingmode vector(packetBytes)
attr source sentPacketToUpperLayer
vector 312 Highway5G.car[2].cellularNic.nrRlc.um rlcPduPacketLossUl:vector ETV
attr recordingmode vector
attr source rlcPduPacketLossUl
attr title "rlc Packet Loss"
attr unit ""
vector 313 Highway5G.car[3].cellularNic.nrRlc.um rlcPduThroughputUl:vector ETV
attr recordingmode vector
attr source rlcPduThroughputUl
attr title "Throughput at the rlc layer UL"
attr unit Bps
vector 314 Highway5G.car[3].cellularNic.nrRlc.um rlcPduDelayUl:vector ETV
attr recordingmode vector
attr source rlcPduDelayUl
attr title "Delay at the rlc layer UL"
attr unit s
vector 315 Highway5G.car[3].cellularNic.nrRlc.um rlcThroughputUl:vector ETV
attr recordingmode vector
attr source rlcThroughputUl
attr title "Throughput at the rlc layer UL"
attr unit Bps
vector 316 Highway5G.car[3].cellularNic.nrRlc.um rlcPacketLossTotal:vector ETV
attr recordingmode vector
attr source rlcPacketLossTotal
attr title "rlc Packet Loss"
attr unit ""
vector 317 Highway5G.car[3].cellularNic.nrRlc.um rlcDelayUl:vector ETV
attr recordingmode vector
attr source rlcDelayUl
attr title "Delay at the rlc layer UL"
attr unit s
vector 318 Highway5G.car[3].cellularNic.nrRlc.um rlcPduPacketLossUl:vector ETV
attr recordingmode vector
attr source rlcPduPacketLossUl
attr title "rlc Packet Loss"
attr unit ""
vector 319 Highway5G.gNodeB1.cellularNic.pdcpRrc receivedPacketFromLowerLayer:vector(packetBytes) ETV
attr interpolationmode none
attr recordingmode vector(packetBytes)
attr source receivedPacketFromLowerLayer
vector 320 Highway5G.gNodeB1.cellularNic.pdcpRrc sentPacketToUpperLayer:vector(packetBytes) ETV
attr interpolationmode none
attr recordingmode vector(packetBytes)
attr source sentPacketToUpperLayer
vector 321 Highway5G.gNodeB1.udp packetSent:vector(packetBytes) ETV
attr interpolationmode none
attr recordingmode vector(packetBytes)
attr source packetSent
attr title "packets sent, packetBytes"
vector 322 Highway5G.gNodeB1.pppIf.queue incomingPacketLengths:vector ETV
attr interpolationmode none
attr recordingmode vector
attr source packetLength(packetPushStarted)
attr title "incoming packet lengths"
attr unit b
vector 323 Highway5G.gNodeB1.pppIf.queue incomingDataRate:vector ETV
attr interpolationmode linear
attr recordingmode vector
attr source throughput(packetPushStarted)
attr title "incoming datarate"
attr unit bps
vector 324 Highway5G.gNodeB1.pppIf.queue queueingTime:vector ETV
attr interpolationmode none
attr recordingmode vector
attr source queueingTime(packetPulled)
attr title "queueing times"
attr unit s
vector 325 Highway5G.gNodeB1.pppIf.queue outgoingPacketLengths:vector ETV
attr interpolationmode none
attr recordingmode vector
attr source packetLength(packetPulled)
attr title "outgoing packet lengths"
attr unit b
vector 326 Highway5G.gNodeB1.pppIf.queue outgoingDataRate:vector ETV
attr interpolationmode linear
attr recordingmode vector
attr source throughput(packetPulled)
attr title "outgoing datarate"
attr unit bps
vector 327 Highway5G.gNodeB1.pppIf.ppp rcvdPkFromHl:vector(packetBytes) ETV
attr interpolationmode none
attr recordingmode vector(packetBytes)
attr source packetReceivedFromUpper
attr title "packets received from higher layer, packetBytes"
vector 328 Highway5G.gNodeB1.pppIf.ppp txPk:vector(packetBytes) ETV
attr interpolationmode none
attr recordingmode vector(packetBytes)
attr source packetSentToLower
attr title "packets transmitted, packetBytes"
vector 329 Highway5G.upf.ppp[0].ppp rxPkOk:vector(packetBytes) ETV
attr interpolationmode none
attr recordingmode vector(packetBytes)
attr source rxPkOk
attr title "packets received OK, packetBytes"
vector 330 Highway5G.upf.ppp[0].ppp passedUpPk:vector(packetBytes) ETV
attr interpolationmode none
attr recordingmode vector(packetBytes)
attr source packetSentToUpper
attr title "packets passed to higher layer, packetBytes"
vector 331 Highway5G.server.app[2] voIPReceivedThroughput:vector ETV
attr recordingmode vector
attr source voIPReceivedThroughput
attr title "Throughput received at the application level"
attr unit Bps
vector 332 Highway5G.server.app[3] voIPReceivedThroughput:vector ETV
attr recordingmode vector
attr source voIPReceivedThroughput
attr title "Throughput received at the application level"
attr unit Bps
vector 333 Highway5G.car[2].cellularNic.nrMac harqErrorRate_1st_Ul:vector ETV
attr recordingmode vector
attr source harqErrorRate_1st_Ul
attr title "Harq Error Rate Ul (1st tx)"
attr unit ""
vector 334 Highway5G.car[2].cellularNic.nrMac harqErrorRateUl:vector ETV
attr recordingmode vector
attr source harqErrorRateUl
attr title "Harq Error Rate Ul"
attr unit ""
vector 335 Highway5G.car[2].cellularNic.nrMac harqTxAttemptsUl:vector ETV
attr recordingmode vector
attr source harqTxAttemptsUl
attr title "Harq Tx Attempts Ul"
attr unit ""
vector 336 Highway5G.car[3].cellularNic.nrMac harqErrorRate_1st_Ul:vector ETV
attr recordingmode vector
attr source harqErrorRate_1st_Ul
attr title "Harq Error Rate Ul (1st tx)"
attr unit ""
vector 337 Highway5G.car[3].cellularNic.nrMac harqErrorRateUl:vector ETV
attr recordingmode vector
attr source harqErrorRateUl
attr title "Harq Error Rate Ul"
attr unit ""
vector 338 Highway5G.car[3].cellularNic.nrMac harqTxAttemptsUl:vector ETV
attr recordingmode vector
attr source harqTxAttemptsUl
attr title "Harq Tx Attempts Ul"
attr unit ""
vector 339 Highway5G.car[1].cellularNic.nrMac harqErrorRate_2nd_Ul:vector ETV
attr recordingmode vector
attr source harqErrorRate_2nd_Ul
attr title "Harq Error Rate Ul (2nd tx)"
attr unit ""
vector 340 Highway5G.car[1].cellularNic.nrMac harqErrorRate_3rd_Ul:vector ETV
attr recordingmode vector
attr source harqErrorRate_3rd_Ul
attr title "Harq Error Rate Ul (3rd tx)"
attr unit ""
vector 341 Highway5G.server.app[0] voIPFrameDelay:vector ETV
attr recordingmode vector
attr source voIPFrameDelay
attr title "VoIP Frame Delay"
attr unit s
vector 342 Highway5G.car[1].cellularNic.nrMac harqErrorRate_4th_Ul:vector ETV
attr recordingmode vector
attr source harqErrorRate_4th_Ul
attr title "Harq Error Rate Ul (4th tx)"
attr unit ""
vector 343 Highway5G.gNodeB2.sctp "SendQueue of Association 70" ETV
vector 344 Highway5G.gNodeB2.sctp "TSN Sent 70:192.168.4.1" ETV
vector 345 Highway5G.gNodeB2.sctp "Outstanding Bytes 70:192.168.4.1" ETV
vector 346 Highway5G.gNodeB2.sctp "Outstanding Bytes 69:Total" ETV
vector 347 Highway5G.gNodeB2.sctp "Queued Sent Bytes 70:192.168.4.1" ETV
vector 348 Highway5G.gNodeB2.sctp "Queued Sent Bytes 69:Total" ETV
vector 349 Highway5G.gNodeB2.x2ppp[0].queue incomingDataRate:vector ETV
attr interpolationmode linear
attr recordingmode vector
attr source throughput(packetPushStarted)
attr title "incoming datarate"
attr unit bps
vector 350 Highway5G.gNodeB2.x2ppp[0].queue outgoingDataRate:vector ETV
attr interpolationmode linear
attr recordingmode vector
attr source throughput(packetPulled)
attr title "outgoing datarate"
attr unit bps
vector 351 Highway5G.gNodeB1.sctp "TSN Received 49:192.168.4.2" ETV
vector 352 Highway5G.gNodeB1.sctp "Stream 0 Throughput" ETV
vector 353 Highway5G.gNodeB1.sctp "Queued Received Bytes 49:Total" ETV
vector 354 Highway5G.gNodeB1.sctp "Advertised Receiver Window 49" ETV
vector 355 Highway5G.gNodeB1.sctp "Number of Total Gap Blocks Stored 49" ETV
vector 356 Highway5G.gNodeB1.sctp "Number of Revokable Gap Blocks Stored 49" ETV
vector 357 Highway5G.gNodeB1.sctp "Number of Non-Revokable Gap Blocks Stored 49" ETV
vector 358 Highway5G.gNodeB1.sctp "Number of Duplicate TSNs Stored 49" ETV
vector 359 Highway5G.gNodeB1.sctp "Length of SACK Sent 49" ETV
vector 360 Highway5G.gNodeB1.sctp "Number of Revokable Gap Blocks Sent 49" ETV
vector 361 Highway5G.gNodeB1.sctp "Number of Non-Revokable Gap Blocks Sent 49" ETV
vector 362 Highway5G.gNodeB1.sctp "Number of Duplicate TSNs Sent 49" ETV
vector 363 Highway5G.gNodeB1.sctp "End to End Delay of Association 49" ETV
vector 364 Highway5G.gNodeB1.x2ppp[0].queue incomingDataRate:vector ETV
attr interpolationmode linear
attr recordingmode vector
attr source throughput(packetPushStarted)
attr title "incoming datarate"
attr unit bps
vector 365 Highway5G.gNodeB1.x2ppp[0].queue outgoingDataRate:vector ETV
attr interpolationmode linear
attr recordingmode vector
attr source throughput(packetPulled)
attr title "outgoing datarate"
attr unit bps
vector 366 Highway5G.gNodeB1.x2App[0].client packetReceived:vector(packetBytes) ETV
attr interpolationmode none
attr recordingmode vector(packetBytes)
attr source packetReceived
attr title "packets received, packetBytes"
vector 367 Highway5G.gNodeB2.sctp "Number of Gap Blocks in Last SACK of Association 70" ETV
vector 368 Highway5G.gNodeB2.sctp "Number of Revokable Gap Blocks in SACK 69" ETV
vector 369 Highway5G.gNodeB2.sctp "Number of Non-Revokable Gap Blocks in SACK 69" ETV
vector 370 Highway5G.gNodeB2.sctp "TSN Acked CumAck 70:192.168.4.1" ETV
vector 371 Highway5G.gNodeB2.sctp "RTT 70:192.168.4.1" ETV
vector 372 Highway5G.gNodeB2.sctp "Number of Gap Acked Chunks in Last SACK 70:10.0.0.1" ETV
vector 373 Highway5G.gNodeB2.sctp "Number of Non-Revokable Gap Acked Chunks in Last SACK 70:10.0.0.1" ETV
vector 374 Highway5G.gNodeB2.sctp "Number of Gap Missed Chunks in Last SACK 70:10.0.0.1" ETV
vector 375 Highway5G.gNodeB2.sctp "Number of Gap Acked Chunks in Last SACK 70:192.168.2.2" ETV
vector 376 Highway5G.gNodeB2.sctp "Number of Non-Revokable Gap Acked Chunks in Last SACK 70:192.168.2.2" ETV
vector 377 Highway5G.gNodeB2.sctp "Number of Gap Missed Chunks in Last SACK 70:192.168.2.2" ETV
vector 378 Highway5G.gNodeB2.sctp "Number of Gap Acked Chunks in Last SACK 70:192.168.4.1" ETV
vector 379 Highway5G.gNodeB2.sctp "Number of Non-Revokable Gap Acked Chunks in Last SACK 70:192.168.4.1" ETV
vector 380 Highway5G.gNodeB2.sctp "Number of Gap Missed Chunks in Last SACK 70:192.168.4.1" ETV
vector 381 Highway5G.gNodeB2.sctp "Number of Gap Acked Chunks in Last SACK 70:192.168.5.1" ETV
vector 382 Highway5G.gNodeB2.sctp "Number of Non-Revokable Gap Acked Chunks in Last SACK 70:192.168.5.1" ETV
vector 383 Highway5G.gNodeB2.sctp "Number of Gap Missed Chunks in Last SACK 70:192.168.5.1" ETV
vector 384 Highway5G.gNodeB2.sctp "Arwnd in Last SACK 69" ETV
vector 385 Highway5G.gNodeB2.sctp "TSN PseudoCumAck 70:192.168.4.1" ETV
vector 386 Highway5G.gNodeB2.sctp "TSN RTXPseudoCumAck 70:192.168.4.1" ETV
vector 387 Highway5G.gNodeB2.sctp "Partial Bytes Acked 70:192.168.4.1" ETV
vector 388 Highway5G.gNodeB1.sctp "SendQueue of Association 71" ETV
vector 389 Highway5G.gNodeB1.sctp "TSN Sent 71:192.168.4.2" ETV
vector 390 Highway5G.gNodeB1.sctp "Outstanding Bytes 71:192.168.4.2" ETV
vector 391 Highway5G.gNodeB1.sctp "Outstanding Bytes 68:Total" ETV
vector 392 Highway5G.gNodeB1.sctp "Queued Sent Bytes 71:192.168.4.2" ETV
vector 393 Highway5G.gNodeB1.sctp "Queued Sent Bytes 68:Total" ETV
vector 394 Highway5G.gNodeB2.sctp "TSN Received 53:192.168.4.1" ETV
vector 395 Highway5G.gNodeB2.sctp "Stream 0 Throughput" ETV
vector 396 Highway5G.gNodeB2.sctp "Queued Received Bytes 53:Total" ETV
vector 397 Highway5G.gNodeB2.sctp "Advertised Receiver Window 53" ETV
vector 398 Highway5G.gNodeB2.sctp "Number of Total Gap Blocks Stored 53" ETV
vector 399 Highway5G.gNodeB2.sctp "Number of Revokable Gap Blocks Stored 53" ETV
vector 400 Highway5G.gNodeB2.sctp "Number of Non-Revokable Gap Blocks Stored 53" ETV
vector 401 Highway5G.gNodeB2.sctp "Number of Duplicate TSNs Stored 53" ETV
vector 402 Highway5G.gNodeB2.sctp "Length of SACK Sent 53" ETV
vector 403 Highway5G.gNodeB2.sctp "Number of Revokable Gap Blocks Sent 53" ETV
vector 404 Highway5G.gNodeB2.sctp "Number of Non-Revokable Gap Blocks Sent 53" ETV
vector 405 Highway5G.gNodeB2.sctp "Number of Duplicate TSNs Sent 53" ETV
vector 406 Highway5G.gNodeB2.sctp "End to End Delay of Association 53" ETV
vector 407 Highway5G.gNodeB2.x2App[0].client packetReceived:vector(packetBytes) ETV
attr interpolationmode none
attr recordingmode vector(packetBytes)
attr source packetReceived
attr title "packets received, packetBytes"
vector 408 Highway5G.gNodeB1.sctp "Number of Gap Blocks in Last SACK of Association 71" ETV
vector 409 Highway5G.gNodeB1.sctp "Number of Revokable Gap Blocks in SACK 68" ETV
vector 410 Highway5G.gNodeB1.sctp "Number of Non-Revokable Gap Blocks in SACK 68" ETV
vector 411 Highway5G.gNodeB1.sctp "TSN Acked CumAck 71:192.168.4.2" ETV
vector 412 Highway5G.gNodeB1.sctp "RTT 71:192.168.4.2" ETV
vector 413 Highway5G.gNodeB1.sctp "Number of Gap Acked Chunks in Last SACK 71:10.0.0.2" ETV
vector 414 Highway5G.gNodeB1.sctp "Number of Non-Revokable Gap Acked Chunks in Last SACK 71:10.0.0.2" ETV
vector 415 Highway5G.gNodeB1.sctp "Number of Gap Missed Chunks in Last SACK 71:10.0.0.2" ETV
vector 416 Highway5G.gNodeB1.sctp "Number of Gap Acked Chunks in Last SACK 71:192.168.3.2" ETV
vector 417 Highway5G.gNodeB1.sctp "Number of Non-Revokable Gap Acked Chunks in Last SACK 71:192.168.3.2" ETV
vector 418 Highway5G.gNodeB1.sctp "Number of Gap Missed Chunks in Last SACK 71:192.168.3.2" ETV
vector 419 Highway5G.gNodeB1.sctp "Number of Gap Acked Chunks in Last SACK 71:192.168.4.2" ETV
vector 420 Highway5G.gNodeB1.sctp "Number of Non-Revokable Gap Acked Chunks in Last SACK 71:192.168.4.2" ETV
vector 421 Highway5G.gNodeB1.sctp "Number of Gap Missed Chunks in Last SACK 71:192.168.4.2" ETV
vector 422 Highway5G.gNodeB1.sctp "Number of Gap Acked Chunks in Last SACK 71:192.168.6.1" ETV
vector 423 Highway5G.gNodeB1.sctp "Number of Non-Revokable Gap Acked Chunks in Last SACK 71:192.168.6.1" ETV
vector 424 Highway5G.gNodeB1.sctp "Number of Gap Missed Chunks in Last SACK 71:192.168.6.1" ETV
vector 425 Highway5G.gNodeB1.sctp "Arwnd in Last SACK 68" ETV
vector 426 Highway5G.gNodeB1.sctp "TSN PseudoCumAck 71:192.168.4.2" ETV
vector 427 Highway5G.gNodeB1.sctp "TSN RTXPseudoCumAck 71:192.168.4.2" ETV
vector 428 Highway5G.gNodeB1.sctp "Partial Bytes Acked 71:192.168.4.2" ETV
vector 429 Highway5G.car[4].udp passedUpPk:vector(count) ETV
attr interpolationmode none
attr recordingmode vector(count)
attr source packetSentToUpper
attr title "packets passed up, count"
vector 430 Highway5G.car[4].udp droppedPkWrongPort:vector(count) ETV
attr interpolationmode none
attr recordingmode vector(count)
attr source packetDropReasonIsNoPortFound(packetDropped)
attr title "packets dropped (wrong port), count"
vector 431 Highway5G.car[4].udp droppedPkBadChecksum:vector(count) ETV
attr interpolationmode none
attr recordingmode vector(count)
attr source packetDropReasonIsIncorrectlyReceived(packetDropped)
attr title "packets dropped (checksum error), count"
vector 432 Highway5G.car[4].cellularNic.phy servingCell:vector ETV
attr recordingmode vector
attr source servingCell
attr title "ID of the serving eNodeB for the UE"
attr unit ""
vector 433 Highway5G.car[4].cellularNic.nrChannelModel[0] distance:vector ETV
attr recordingmode vector
attr source distance
attr title "distance between UE and serving base station"
attr unit meters
vector 434 Highway5G.car[4].cellularNic.nrPhy servingCell:vector ETV
attr recordingmode vector
attr source servingCell
attr title "ID of the serving eNodeB for the UE"
attr unit ""
vector 435 Highway5G.car[5].udp passedUpPk:vector(count) ETV
attr interpolationmode none
attr recordingmode vector(count)
attr source packetSentToUpper
attr title "packets passed up, count"
vector 436 Highway5G.car[5].udp droppedPkWrongPort:vector(count) ETV
attr interpolationmode none
attr recordingmode vector(count)
attr source packetDropReasonIsNoPortFound(packetDropped)
attr title "packets dropped (wrong port), count"
vector 437 Highway5G.car[5].udp droppedPkBadChecksum:vector(count) ETV
attr interpolationmode none
attr recordingmode vector(count)
attr source packetDropReasonIsIncorrectlyReceived(packetDropped)
attr title "packets dropped (checksum error), count"
vector 438 Highway5G.car[5].cellularNic.phy servingCell:vector ETV
attr recordingmode vector
attr source servingCell
attr title "ID of the serving eNodeB for the UE"
attr unit ""
vector 439 Highway5G.car[5].cellularNic.nrChannelModel[0] distance:vector ETV
attr recordingmode vector
attr source distance
attr title "distance between UE and serving base station"
attr unit meters
vector 440 Highway5G.car[5].cellularNic.nrPhy servingCell:vector ETV
attr recordingmode vector
attr source servingCell
attr title "ID of the serving eNodeB for the UE"
attr unit ""
vector 441 Highway5G.car[4].app[0] voIPGeneratedThroughput:vector ETV
attr recordingmode vector
attr source voIPGeneratedThroughput
attr title "Throughput generated by the application"
attr unit Bps
vector 442 Highway5G.car[5].app[0] voIPGeneratedThroughput:vector ETV
attr recordingmode vector
attr source voIPGeneratedThroughput
attr title "Throughput generated by the application"
attr unit Bps
vector 443 Highway5G.car[4].udp packetSent:vector(packetBytes) ETV
attr interpolationmode none
attr recordingmode vector(packetBytes)
attr source packetSent
attr title "packets sent, packetBytes"
vector 444 Highway5G.car[5].udp packetSent:vector(packetBytes) ETV
attr interpolationmode none
attr recordingmode vector(packetBytes)
attr source packetSent
attr title "packets sent, packetBytes"
vector 445 Highway5G.car[4].cellularNic.pdcpRrc receivedPacketFromUpperLayer:vector(packetBytes) ETV
attr interpolationmode none
attr recordingmode vector(packetBytes)
attr source receivedPacketFromUpperLayer
vector 446 Highway5G.car[4].cellularNic.pdcpRrc sentPacketToLowerLayer:vector(packetBytes) ETV
attr interpolationmode none
attr recordingmode vector(packetBytes)
attr source sentPacketToLowerLayer
vector 447 Highway5G.car[5].cellularNic.pdcpRrc receivedPacketFromUpperLayer:vector(packetBytes) ETV
attr interpolationmode none
attr recordingmode vector(packetBytes)
attr source receivedPacketFromUpperLayer
vector 448 Highway5G.car[5].cellularNic.pdcpRrc sentPacketToLowerLayer:vector(packetBytes) ETV
attr interpolationmode none
attr recordingmode vector(packetBytes)
attr source sentPacketToLowerLayer
vector 449 Highway5G.car[4].cellularNic.nrRlc.um receivedPacketFromUpperLayer:vector(packetBytes) ETV
attr interpolationmode none
attr recordingmode vector(packetBytes)
attr source receivedPacketFromUpperLayer
vector 450 Highway5G.car[5].cellularNic.nrRlc.um receivedPacketFromUpperLayer:vector(packetBytes) ETV
attr interpolationmode none
attr recordingmode vector(packetBytes)
attr source receivedPacketFromUpperLayer
vector 451 Highway5G.car[4].cellularNic.nrMac receivedPacketFromUpperLayer:vector(packetBytes) ETV
attr interpolationmode none
attr recordingmode vector(packetBytes)
attr source receivedPacketFromUpperLayer
vector 452 Highway5G.car[5].cellularNic.nrMac receivedPacketFromUpperLayer:vector(packetBytes) ETV
attr interpolationmode none
attr recordingmode vector(packetBytes)
attr source receivedPacketFromUpperLayer
vector 453 Highway5G.car[4].cellularNic.nrMac sentPacketToLowerLayer:vector(packetBytes) ETV
attr interpolationmode none
attr recordingmode vector(packetBytes)
attr source sentPacketToLowerLayer
vector 454 Highway5G.car[5].cellularNic.nrMac sentPacketToLowerLayer:vector(packetBytes) ETV
attr interpolationmode none
attr recordingmode vector(packetBytes)
attr source sentPacketToLowerLayer
vector 455 Highway5G.car[4].cellularNic.nrChannelModel[0] measuredSinrUl:vector ETV
attr recordingmode vector
attr source measuredSinrUl
attr title "SINR measured at feedback computation, UL"
attr unit dB
vector 456 Highway5G.car[4].cellularNic.nrChannelModel[0] measuredSinrDl:vector ETV
attr recordingmode vector
attr source measuredSinrDl
attr title "SINR measured at feedback computation, DL"
attr unit dB
vector 457 Highway5G.car[5].cellularNic.nrChannelModel[0] measuredSinrUl:vector ETV
attr recordingmode vector
attr source measuredSinrUl
attr title "SINR measured at feedback computation, UL"
attr unit dB
vector 458 Highway5G.car[5].cellularNic.nrChannelModel[0] measuredSinrDl:vector ETV
attr recordingmode vector
attr source measuredSinrDl
attr title "SINR measured at feedback computation, DL"
attr unit dB
vector 459 Highway5G.car[4].cellularNic.nrMac receivedPacketFromLowerLayer:vector(packetBytes) ETV
attr interpolationmode none
attr recordingmode vector(packetBytes)
attr source receivedPacketFromLowerLayer
vector 460 Highway5G.car[5].cellularNic.nrMac receivedPacketFromLowerLayer:vector(packetBytes) ETV
attr interpolationmode none
attr recordingmode vector(packetBytes)
attr source receivedPacketFromLowerLayer
vector 461 Highway5G.car[4].cellularNic.nrMac sentPacketToUpperLayer:vector(packetBytes) ETV
attr interpolationmode none
attr recordingmode vector(packetBytes)
attr source sentPacketToUpperLayer
vector 462 Highway5G.car[4].cellularNic.nrRlc.um rlcPacketLossUl:vector ETV
attr recordingmode vector
attr source rlcPacketLossUl
attr title "rlc Packet Loss"
attr unit ""
[...]
1427	119087908 1300 5714243 6122070 57.968 59.982 50 0.004 0.004 0.2 0.0008
1428	119089208 1796 5714243 6122070 57.968 59.982 50 329.71639525255 375.01250375113 17711.881688361 6283139.935455
1429	119091004 1100 5714243 6122070 57.968 59.982 50 0 0 0 0
1430	119092104 1750 5714243 6122070 57.968 59.982 50 0.008201874359 0.008454405111 0.413124086974 0.0034140118234021
1431	119093854 1100 5714243 6122070 57.968 59.982 50 0 0 0 0
1432	119094954 7176 5586466 6125488 57.239 59.999 276 0.004 0.004 1.104 0.004416
1433	119102130 6072 5586476 6125494 57.239 59.999 276 0 0 0 0
1434	119108202 7176 5586476 6125494 57.239 59.999 276 0.004 0.004 1.104 0.004416
1435	119115378 6072 5586476 6125494 57.239 59.999 276 0 0 0 0
1436	119121450 2145 5714380 6122213 57.9680004788 59.9820004788 50 191.13993769808 217.39855116384 10267.757399554 2111536.1687434
1437	119123595 1100 5714530 6122334 57.969 59.983 50 0 0 0 0
1438	119124695 1100 5714530 6122334 57.969 59.983 50 0 0 0 0
1439	119125795 1100 5714530 6122334 57.969 59.983 50 1 1 50 50
1440	119126895 5900 5586726 6125758 57.24 60 276 0 0 0 0
1441	119132795 5900 5586726 6125758 57.24 60 276 0 0 0 0
1442	119138695 5900 5586726 6125758 57.24 60 276 1 1 276 276
1443	119144595 4982 5586476 6125494 57.239 59.999 139 671.44778909485 799.26332105535 102352.92202736 75559700.808936
1444	119149577 3058 5586476 6125494 57.239 59.999 139 0 0 0 0
1445	119152635 4865 5586476 6125494 57.239 59.999 139 0.008783635867 0.014783635867 2.048925385513 0.030237865002875
1446	119157500 5962 5586541 6125564 57.2390004476 59.9990004476 139 389.24509208361 463.34105222768 59335.02680036 25392883.724916
1447	119163462 5673 6125929 6125929 60 60 183 0.008072782555 0.008072962555 1.477331896365 0.01192628159591
1452	119169135 191 5720433 6125916 58 60 6 227.27794986479 803.2238516017 3102.2049926254 2090234.2571807
1454	119169326 6193 5587187 6122357 57.243529028272 59.983529028272 138 120.88702631493 206.72341559223 22696.746287748 3818858.7364931
1455	119175519 4416 5587188 6122358 57.243529028272 59.983529028272 138 48 48 6624 317952
1456	119179935 4416 5587191 6122361 57.243529028272 59.983529028272 138 68 68 9384 638112
1457	119184351 4416 5587191 6122361 57.243529028272 59.983529028272 138 69 69 9522 657018
1458	119188767 4416 5587192 6122362 57.243529028272 59.983529028272 138 69 69 9522 657018
1459	119193183 7590 5587194 6123151 57.243529028272 59.988 276 71 71 19596 1391316
1460	119200773 6210 5587227 6123259 57.244 59.988 276 1 73 10212 735540
1461	119206983 16328 5586345 6125351 57.238 59.998 461 23.753419037766 38.61740725026 14999.514320064 506388.94373227
1462	119223311 16326 5586345 6125351 57.238 59.998 461 42.62540658585 56.675826931631 22940.08554229 1157153.2833896
1463	119239637 9108 5587735 6124295 57.246 59.993 414 1 1 414 414
1464	119248745 3036 5587944 6123147 57.248 59.988 138 1 1 138 138
1465	119251781 6072 5587946 6124071 57.248 59.992 276 0 0 0 0
1466	119257853 3174 5587946 6123149 57.248 59.988 138 71 71 9798 695658
1467	119261027 3174 5588033 6123260 57.248 59.988 138 12 14 1842 24708
1468	119264201 4918 5588219 6123507 57.249 59.989 138 17.693290587964 35.847934299185 4252.1107106709 132874.11337829
1469	119269119 3588 5588702 6124065 57.252 59.992 138 0.004 0.004 0.552 0.002208
1470	119272707 3036 5588705 6124071 57.252 59.992 138 0 0 0 0
1471	119275743 3588 5588705 6124071 57.252 59.992 138 0.004 0.004 0.552 0.002208
1472	119279331 4955 5588705 6124071 57.252 59.992 138 208.49926640117 356.54753967196 39146.240462974 11360220.284067
1473	119284286 3036 5588705 6124071 57.252 59.992 138 0 0 0 0
1474	119287322 4830 5588705 6124071 57.252 59.992 138 0.008470971728 0.008470971728 1.168994098464 0.0099025159582874
1475	119292152 3036 5588705 6124071 57.252 59.992 138 0 0 0 0
1476	119295188 5922 5588773 6124163 57.2520003588 59.9920004476 138 120.86913918522 206.69422435464 22693.472575524 3817759.3367866
1477	119301110 3036 5588907 6124295 57.253 59.993 138 0 0 0 0
1478	119304146 3036 5588907 6124295 57.253 59.993 138 0 0 0 0
1479	119307182 3036 5588907 6124295 57.253 59.993 138 1 1 138 138
1482	119310218 7967 6125929 6125929 60 60 257 0.008471330528 0.008471596928 2.177152547296 0.018443553363792
1486	119318185 2724 5714380 6125929 57.9680004788 60 68 0.008202353159 0.008602611945 0.567999973984 0.0047465771321786
1487	119320909 6355 6125929 6125929 60 60 205 0.008784083467 0.020784083467 3.042741517135 0.045305618704372
1489	119327264 22 5744030 5744030 58.118 58.118 1 0 0 0 0
1494	119327286 190 5720435 6125918 58 60 6 310.12953503289 808.05334640361 3384.5577264368 2263937.9694474
1496	119327476 4937 5588590 6121952 57.251797435725 59.981723170305 110 203.31239404436 266.7479217723 25894.020585747 6133419.2812595
1497	119332413 3520 5588591 6121953 57.251797435725 59.981723170305 110 48 48 5280 253440
1498	119335933 3520 5588594 6121956 57.251797435725 59.981723170305 110 68 68 7480 508640
1499	119339453 3520 5588594 6121956 57.251797435725 59.981723170305 110 69 69 7590 523710
1500	119342973 3520 5588595 6121957 57.251797435725 59.981723170305 110 69 69 7590 523710
1501	119346493 6050 5588597 6122805 57.251797435725 59.986 220 71 71 15620 1109020
1502	119352543 4950 5588627 6122901 57.252 59.986 220 1 73 8140 586300
1503	119357493 16490 5586717 6125749 57.24 60 461 17.190171154689 21.974485434737 8913.6431126132 174092.01980783
1504	119373983 16491 5586717 6125749 57.24 60 461 30.376107787097 34.676508943481 14494.064909974 456055.59251454
1505	119390474 7282 5586878 6123941 57.241 59.991 331 1 1 331 331
1506	119397756 2420 5589310 6122801 57.256 59.986 110 1 1 110 110
1507	119400176 4732 5586672 6123692 57.24 59.99 221 0 0 0 0
1508	119404908 2530 5589312 6122803 57.256 59.986 110 71 71 7810 554510
1509	119407438 2504 5589397 6122902 57.256 59.986 110 9 11 1107 11199
1510	119409942 3959 5589556 6123096 57.257 59.987 110 17.286853970488 26.560441650287 2220.269902472 45784.989051714
1511	119413901 2756 5586665 6123682 57.24 59.99 111 0.004 0.004 0.444 0.001776
1512	119416657 2312 5586672 6123692 57.24 59.99 111 0 0 0 0
1513	119418969 2756 5586672 6123692 57.24 59.99 111 0.004 0.004 0.444 0.001776
1514	119421725 3839 5586672 6123692 57.24 59.99 111 349.58071278826 460.07667944657 45010.401254972 18367765.813991
1515	119425564 2312 5586672 6123692 57.24 59.99 111 0 0 0 0
1516	119427876 3755 5586672 6123692 57.24 59.99 111 0.008202564275 0.008705451394 0.928249589016 0.0077636255230006
1517	119431631 2312 5586672 6123692 57.24 59.99 111 0 0 0 0
1518	119433943 4764 5586764 6123817 57.2400004476 59.9900004476 111 202.65548408965 266.71111652976 26092.986041412 6172742.0433065
1519	119438707 2442 5586878 6123941 57.241 59.991 111 0 0 0 0
1520	119441149 2442 5586878 6123941 57.241 59.991 111 0 0 0 0
1521	119443591 2442 5586878 6123941 57.241 59.991 111 1 1 111 111
1526	119446033 192 5720437 6125920 58 60 6 143.59030585069 885.13892769915 3090.031323072 2363302.708772
1528	119446225 764 5733616 6122558 58.067446979153 59.984687571782 17 95.750722465827 103.35971146938 1699.9053679575 170064.54949805
1529	119446989 544 5733617 6122559 58.067446979153 59.984687571782 17 48 48 816 39168
1530	119447533 544 5733620 6122562 58.067446979153 59.984687571782 17 68 68 1156 78608
1531	119448077 544 5733620 6122562 58.067446979153 59.984687571782 17 69 69 1173 80937
1532	119448621 544 5733621 6122563 58.067446979153 59.984687571782 17 69 69 1173 80937
1533	119449165 935 5733623 6123353 58.067446979153 59.989 34 71 71 2414 171394
1534	119450100 765 5733643 6123469 58.068 59.989 34 1 73 1258 90610
1535	119450865 16344 5586347 6125353 57.238 59.998 461 28.915210907685 32.214161506634 14417.27314174 451079.95703238
1536	119467209 16493 5586347 6125353 57.238 59.998 461 38.947751740473 58.875527491628 22567.896144888 1133456.9093888
1537	119483702 1111 5734274 6124560 58.07 59.994 51 1 1 51 51
1538	119484813 374 5734577 6123349 58.072 59.989 17 1 1 17 17
1539	119485187 748 5734579 6124273 58.072 59.993 34 0 0 0 0
1540	119485935 391 5734579 6123351 58.072 59.989 17 71 71 1207 85697
1541	119486326 391 5734672 6123470 58.072 59.989 17 13 14 237 3305
1542	119486717 606 5734879 6123768 58.073 59.99 17 28.023850250395 34.892899808302 530.68311251819 16733.222748837
1543	119487323 442 5735441 6124262 58.076 59.993 17 0.004 0.004 0.068 0.000272
1544	119487765 374 5735448 6124273 58.076 59.993 17 0 0 0 0
1545	119488139 442 5735448 6124273 58.076 59.993 17 0.004 0.004 0.068 0.000272
1546	119488581 606 5735448 6124273 58.076 59.993 17 165.14567118948 178.2707982598 2931.9144483116 505902.63008996
1547	119489187 374 5735448 6124273 58.076 59.993 17 0 0 0 0
1548	119489561 595 5735448 6124273 58.076 59.993 17 0.008312428218 0.008553020847 0.143957798625 0.0012192745989778
1549	119490156 374 5735448 6124273 58.076 59.993 17 0 0 0 0
1550	119490530 731 5735523 6124335 58.0760003588 59.9930004476 17 95.736620387935 103.34538952449 1699.6605372495 170015.58416902
1551	119491261 374 5735659 6124560 58.077 59.994 17 0 0 0 0
1552	119491635 374 5735659 6124560 58.077 59.994 17 0 0 0 0
1553	119492009 374 5735659 6124560 58.077 59.994 17 1 1 17 17
1560	119492383 191 5720439 6125922 58 60 6 279.30710657189 760.44805342683 3111.4174298388 1936343.901185
1562	119492574 5030 5591179 6121808 57.266208602569 59.980283601065 112 17.462304985826 90.696470129785 6117.3640250389 384763.26102409
1563	119497604 3584 5591180 6121809 57.266208602569 59.980283601065 112 48 48 5376 258048
1564	119501188 3584 5591183 6121812 57.266208602569 59.980283601065 112 68 68 7616 517888
1565	119504772 3584 5591183 6121812 57.266208602569 59.980283601065 112 69 69 7728 533232
1566	119508356 3584 5591184 6121813 57.266208602569 59.980283601065 112 69 69 7728 533232
1567	119511940 7126 5591186 6122600 57.266208602569 59.985 266 21 71 15988 1049552
1568	119519066 6006 5591206 6122700 57.267 59.985 266 1 73 8456 517832
1569	119525072 16312 5587044 6124988 57.242 59.996 460 13.16577635967 35.04847622921 10741.641098475 282595.00234908
1570	119541384 16292 5587044 6124988 57.242 59.996 460 35.21630898927 44.479408153623 18371.508085837 740496.45106603
1571	119557676 9128 5591629 6123765 57.269 59.99 420 1 1 420 420
1572	119566804 3388 5591866 6122596 57.271 59.985 154 1 1 154 154
1573	119570192 5852 5591868 6123447 57.271 59.989 266 0 0 0 0
1574	119576044 3542 5591868 6122598 57.271 59.985 154 21 71 8036 484960
1575	119579586 3458 5591963 6122701 57.271 59.985 154 7 14 1518 16536
1576	119583044 5485 5592161 6122948 57.272 59.986 154 16.176238006213 36.91724499431 3766.3959624936 103442.10792339
1577	119588529 4004 5592644 6123434 57.275 59.989 154 0.004 0.004 0.616 0.002464
1578	119592533 3388 5592648 6123447 57.275 59.989 154 0 0 0 0
1579	119595921 4004 5592648 6123447 57.275 59.989 154 0.004 0.004 0.616 0.002464
1580	119599925 4024 5593683 6123447 57.281 59.989 112 30.114697718266 156.42867859108 10550.650808771 1144545.8681866
1581	119603949 2464 5593683 6123447 57.281 59.989 112 0 0 0 0
1582	119606413 3920 5593683 6123447 57.281 59.989 112 0.008716398935 0.014791397431 1.232511594992 0.014526976997916
1583	119610333 3388 5592648 6123447 57.275 59.989 154 0 0 0 0
1584	119613721 4799 5593731 6123557 57.2810003588 59.9890005364 112 17.457795669352 90.683291125998 6116.3192588792 384640.48684266
1585	119618520 3333 5592846 6123765 57.276 59.99 154 0 0 0 0
1586	119621853 3333 5592846 6123765 57.276 59.99 154 0 0 0 0
1587	119625186 3333 5592846 6123765 57.276 59.99 154 1 1 154 154
1590	119628519 21 6063963 6063963 59.69 59.69 1 0 0 0 0
1591	119628540 4806 5735523 6125929 58.0760003588 60 116 0.008312875818 0.008653336337 1.000633481988 0.0086323347318621
1596	119633346 192 5720441 6125924 58 60 6 491.06569989907 519.13234534031 3034.0600131046 1534791.9735822
1598	119633538 3406 5586542 6082430 57.239217009786 59.782828735545 76 75.472730510297 122.44318569101 7500.2959992473 754738.83220002
1599	119636944 2432 5586543 6082431 57.239217009786 59.782828735545 76 48 48 3648 175104
1600	119639376 2432 5586546 6082434 57.239217009786 59.782828735545 76 68 68 5168 351424
1601	119641808 2432 5586546 6082434 57.239217009786 59.782828735545 76 69 69 5244 361836
1602	119644240 2432 5586547 6082435 57.239217009786 59.782828735545 76 69 69 5244 361836
1603	119646672 5905 5586549 6084361 57.239217009786 59.793 228 9 71 10944 634520
1604	119652577 5144 5586574 6084457 57.24 59.793 228 1 66 5928 274280
1605	119657721 16493 5586349 6125355 57.238 59.998 461 11.350212532167 15.238183790429 6152.0346331861 82908.223756205
1606	119674214 16344 5586349 6125355 57.238 59.998 461 24.796909200386 35.115149558572 14009.011473116 433376.03572941
1607	119690558 8360 5587051 6085550 57.242 59.798 380 1 1 380 380
1608	119698918 3333 5587215 6084357 57.244 59.793 152 1 1 152 152
1609	119702251 5005 5587217 6085294 57.244 59.797 228 0 0 0 0
1610	119707256 3473 5587217 6084359 57.244 59.793 152 9 64 5548 251404
1611	119710729 3333 5587325 6084458 57.244 59.793 152 7 8 1087 7793
1612	119714062 5472 5587539 6084731 57.245 59.794 152 15.090632725883 20.137440678004 2706.0677474979 48342.820966143
1613	119719534 3952 5588016 6085291 57.248 59.797 152 0.004 0.004 0.608 0.002432
1614	119723486 3344 5588020 6085294 57.248 59.797 152 0 0 0 0
1615	119726830 3952 5588020 6085294 57.248 59.797 152 0.004 0.004 0.608 0.002432
1616	119730782 3344 5588020 6085294 57.248 59.797 152 0 0 0 0
1617	119734126 3344 5588214 6085550 57.249 59.798 152 0 0 0 0
1618	119737470 3344 5588214 6085550 57.249 59.798 152 0 0 0 0
1619	119740814 3344 5588214 6085550 57.249 59.798 152 1 1 152 152
1620	119744158 2728 5589045 6085294 57.254 59.797 76 130.1568449366 211.16443968761 12934.885988752 2244737.8832243
1621	119746886 1672 5589045 6085294 57.254 59.797 76 0 0 0 0
1622	119748558 2660 5589045 6085294 57.254 59.797 76 0.014171264455 0.014782990214 1.083745081929 0.01545751265282
1623	119751218 3261 5589116 6085359 57.2540003588 59.7970003588 76 75.453242968655 122.41416720032 7498.4845855439 754375.25089781
1624	119754479 6131 5827368 6125929 58.5170003588 60 163 0.008783349014 0.014783349014 2.075926023747 0.027543346198107
1625	119760610 6838 5668642 6125929 57.7230003588 60 167 0.008202923075 0.008705810194 1.387664546416 0.011532606860929
1630	119767448 191 5720443 6125926 58 60 6 517.9570632347 1049.0485693519 4676.1729013562 4038677.8226634
1632	119767639 3963 5586550 6124835 57.24 59.995343316569 112 5.5904961565339 79.339490981551 4842.9331715054 261704.54762496
1633	119771602 2519 5586563 6124836 57.24 59.995343316569 112 48 48 5376 258048
1634	119774121 2519 5586566 6124839 57.24 59.995343316569 112 68 68 7616 517888
1635	119776640 2519 5586566 6124839 57.24 59.995343316569 112 69 69 7728 533232
1636	119779159 2519 5586567 6124840 57.24 59.995343316569 112 69 69 7728 533232
1637	119781678 5464 5586569 6125628 57.24 60 241 26 71 15893 1088167
1638	119787142 5302 5586571 6125723 57.24 60 242 1 73 8384 561296
1639	119792444 16491 5586719 6125751 57.24 60 461 3.0465705672905 26.559033730155 8155.1716265781 184768.21927788
1640	119808935 16203 5586719 6125751 57.24 60 461 24.3578072069 29.293433000943 12557.572662099 343808.66089841
1641	119825138 8162 5587049 6125524 57.242 59.999 371 1 1 371 371
1642	119833300 2816 5587209 6125624 57.244 60 129 1 1 129 129
1643	119836116 5251 5587211 6125626 57.244 60 240 0 0 0 0
1644	119841367 2945 5587211 6125626 57.244 60 129 26 71 7941 523575
1645	119844312 2931 5587323 6125724 57.244 60 130 3 13 1277 14343
1646	119847243 4637 5587537 6123094 57.245 59.987 129 3.2457464346318 25.924286389971 2328.300481788 49542.139162489
1647	119851880 3320 5588021 6123682 57.248 59.99 128 0.004 0.01 0.518 0.002132
1648	119855200 2809 5588024 6123693 57.248 59.99 128 0 0 0 0
1649	119858009 3320 5588024 6123693 57.248 59.99 128 0.004 0.01 0.518 0.002132
1650	119861329 3980 5588024 6123693 57.248 59.99 111 9.6422582448295 135.72262043674 8215.8389769485 759736.14671101
1651	119865309 2435 5588024 6123693 57.248 59.99 111 0 0 0 0
1652	119867744 2942 5588024 6123693 57.248 59.99 111 0.008 0.014656683431 1.000596784017 0.0096117285843758
1653	119870686 2809 5588024 6123693 57.248 59.99 128 0 0 0 0
1654	119873495 4763 5588085 6123822 57.2480003588 59.9900005364 111 5.5897148895055 78.679779259813 4762.8051641149 255319.85163938
1655	119878258 2816 5588218 6123943 57.249 59.991 128 0 1 1 1
1656	119881074 2838 5588218 6123943 57.249 59.991 129 0 1 1 1
1657	119883912 2816 5588218 6123943 57.249 59.991 128 1 2 129 131
1660	119886728 5059 5593731 6125929 57.2810003588 60 136 0.0080006252 0.014791816231 1.425578098992 0.016081305996734
1661	119891787 20 5740120 5740120 58.1 58.1 1 0 0 0 0
1662	119891807 20 5740120 5740120 58.1 58.1 1 0 0 0 0
1663	119891827 20 5740120 5740120 58.1 58.1 1 0 0 0 0
1664	119891847 20 5740120 5740120 58.1 58.1 1 0 0 0 0
1665	119891867 195 5740120 6125928 58.1 60 6 531.50750286332 539.05885061227 3210.0507782374 1717464.0248009
1666	119892062 44 5740120 5936264 58.1 59.05001 2 1 2 3 5
1667	119892106 3314 5740140 6125600 58.1 60 96 0.68846815834768 64 3137.2989597823 135265.17998432
1668	119895420 2088 5740142 6125613 58.1 60 96 48 48 4608 221184
1669	119897508 2094 5740148 6125616 58.1 60 96 68 68 6528 443904
1670	119899602 2094 5740148 6125616 58.1 60 96 69 69 6624 457056
1671	119901696 2094 5740150 6125617 58.1 60 96 69 69 6624 457056
1672	119903790 6281 5740153 6125619 58.1 60 282 21 159 13743 789301
1673	119910071 6162 5740380 6125621 58.101 60 281 1 161 7394 333912
1674	119916233 11342 5740713 6125357 58.102 59.998 317 5.1783186669767 11.325309471307 2614.1976974925 24490.651790975
1675	119927575 11202 5740713 6125357 58.102 59.998 317 27.216496529244 29.398042161482 9283.952592303 271906.99429274
1676	119938777 10250 5740920 6124807 58.103 59.995 466 1 1 466 466
1677	119949027 4000 5741175 6123574 58.105 59.99 186 1 1 186 186
1678	119953027 7032 5741177 6124468 58.105 59.994 326 0 1 45 45
1679	119960059 4187 5741177 6123576 58.105 59.99 186 21 159 6927 305365
1680	119964246 4000 5741298 6123716 58.105 59.99 186 4 7 1025 6065
1681	119968246 6695 5741543 6123948 58.106 59.991 186 5.1614450218863 18.232792727079 2284.6370731505 30980.921503113
1682	119974941 4835 5742137 6124459 58.109 59.994 186 0.004 0.004 0.744 0.002976
1683	119979776 4091 5742152 6124468 58.109 59.994 186 0 0 0 0
1684	119983867 4835 5742152 6124468 58.109 59.994 186 0.004 0.004 0.744 0.002976
1685	119988702 4091 5742152 6124468 58.109 59.994 186 0 0 0 0
1686	119992793 4091 5742362 6124807 58.11 59.995 186 0 0 0 0
1687	119996884 4091 5742362 6124807 58.11 59.995 186 0 0 0 0
1688	120000975 4091 5742362 6124807 58.11 59.995 186 1 1 186 186
1689	120005066 3408 5743316 6124468 58.115 59.994 95 1.1681056373794 56.355635563556 2686.8627532956 100060.89488932
1690	120008474 3032 5743316 6124468 58.115 59.994 140 0 1 45 45
1691	120011506 2464 5743316 6124468 58.115 59.994 95 0.01 0.05 1.379 0.021561
1692	120013970 4053 5743447 6124651 58.1150006252 59.9940005988 95 0.6882904511689 63.33966666787 3072.5481189158 131105.8188321
1693	120018023 22 5949274 5949274 59.115 59.115 1 0 0 0 0
1694	120018045 4657 6099721 6125929 59.8700005364 60 118 0.0080003588 0.014657219831 1.057651290417 0.010077747741327
1695	120022702 11781 6125929 6125929 0.1 60 600 0 0 0 0
1696	120034483 11781 6125929 6125929 0.1 60 600 0 0 0 0
1697	120046264 2729 6125929 6125929 60 60 95 0.0100005388 0.0500003588 1.3790585948 0.021562678786244
1698	120048993 11781 6125929 6125929 0.1 60 600 0 0 0 0
1699	120060774 11781 6125929 6125929 0.1 60 600 0 0 0 0
1700	120072555 11781 6125929 6125929 0.1 60 600 0 0 0 0
1701	120084336 11781 6125929 6125929 0.1 60 600 0 0 0 0
1702	120096117 11781 6125929 6125929 0.1 60 600 0 0 0 0
1703	120107898 11781 6125929 6125929 0.1 60 600 0 0 0 0
1704	120119679 11781 6125929 6125929 0.1 60 600 0 0 0 0
1705	120131460 11781 6125929 6125929 0.1 60 600 0 0 0 0
1706	120143241 11781 6125929 6125929 0.1 60 600 0 0 0 0
1707	120155022 11781 6125929 6125929 0.1 60 600 0 0 0 0

