file 76748638 1751910347                                        
version 3
run VoIP-UL-0-20250707-14:40:08-1607763
attr configname VoIP-UL
attr datetime 20250707-14:40:08
attr datetimef 20250707-144008
attr experiment VoIP-UL
attr inifile omnetpp.ini
attr iterationvars ""
attr iterationvarsd ""
attr iterationvarsf ""
attr measurement ""
attr network Highway5G
attr processid 1607763
attr repetition 0
attr replication #0
attr resultdir results
attr runnumber 0
attr seedset 0
config image-path ../../../../../../../OMNET/omnetpp-6.0.3/workspaces/inet4.5/images:../../../../../../../OMNET/omnetpp-6.0.3/workspaces/simu5g/images:../../../../../../../Dev/veins_new/images
config *.server.numApps 45
config *.server.app[*].typename VoIPReceiver
config *.server.app[*].localPort "3000 + ancestorIndex(0)"
config *.car[*].numApps 1
config *.car[*].app[0].typename VoIPSender
config *.car[*].app[0].destAddress "\"server\""
config *.car[*].app[0].destPort "3000 + ancestorIndex(1)"
config cmdenv-express-mode true
config cmdenv-autoflush true
config image-path ../../images
config network Highway5G
config debug-on-errors false
config print-undisposed false
config sim-time-limit 120s
config **.sctp.**.scalar-recording true
config **.sctp.**.vector-recording true
config **.routingRecorder.enabled false
config *.veinsManager.host "\"localhost\""
config *.veinsManager.port 9999
config *.veinsManager.moduleType "\"simu5g.nodes.cars.NRCar\""
config *.veinsManager.moduleName "\"car\""
config *.veinsManager.launchConfig "xmldoc(\"cenarioB.launchd.xml\")"
config *.veinsManager.updateInterval 0.5s
config *.configurator.addStaticRoutes true
config *.configurator.assignDisjunctSubnetAddresses true
config *.configurator.networkConfiguratorModule "\"IPv4NetworkConfigurator\""
config *.configurator.config "xmldoc(\"demo.xml\")"
config *.configurator.interfaceFilter "\"*\""
config *.physicalEnvironment.config "xmldoc(\"obstaclesB.xml\")"
config *.radioMedium.obstacleLoss.typename IdealObstacleLoss
config *.car[*].mobility.typename projectpredicthandover.veins_inet.VeinsInetMobility
config **.mobility.constraintAreaMaxX 3000m
config **.mobility.constraintAreaMinX 0m
config **.mobility.constraintAreaMaxY 3000m
config **.mobility.constraintAreaMinY 0m
config **.mobility.constraintAreaMinZ 0m
config **.mobility.constraintAreaMaxZ 10m
config *.gNodeB1.mobility.initialX 1843.35m
config *.gNodeB1.mobility.initialY 2161.25m
config *.gNodeB1.mobility.initialZ 0m
config *.gNodeB1.mobility.constraintAreaMinX 1843.35m
config *.gNodeB1.mobility.constraintAreaMaxX 1843.35m
config *.gNodeB1.mobility.constraintAreaMinY 2161.25m
config *.gNodeB1.mobility.constraintAreaMaxY 2161.25m
config *.gNodeB1.mobility.constraintAreaMinZ 0m
config *.gNodeB1.mobility.constraintAreaMaxZ 0m
config *.gNodeB2.mobility.initialX 1000.35m
config *.gNodeB2.mobility.initialY 2161.25m
config *.gNodeB2.mobility.initialZ 0m
config *.gNodeB2.mobility.constraintAreaMinX 1000.35m
config *.gNodeB2.mobility.constraintAreaMaxX 1000.35m
config *.gNodeB2.mobility.constraintAreaMinY 2161.25m
config *.gNodeB2.mobility.constraintAreaMaxY 2161.25m
config *.gNodeB2.mobility.constraintAreaMinZ 0m
config *.gNodeB2.mobility.constraintAreaMaxZ 0m
config *.gNodeB3.mobility.initialX 1500m
config *.gNodeB3.mobility.initialY 1875m
config *.gNodeB3.mobility.initialZ 0m
config *.gNodeB3.mobility.constraintAreaMinX 1500m
config *.gNodeB3.mobility.constraintAreaMaxX 1500m
config *.gNodeB3.mobility.constraintAreaMinY 1875m
config *.gNodeB3.mobility.constraintAreaMaxY 1875m
config *.gNodeB3.mobility.constraintAreaMinZ 0m
config *.gNodeB3.mobility.constraintAreaMaxZ 0m
config *.gNodeB4.mobility.initialX 1070m
config *.gNodeB4.mobility.initialY 2569m
config *.gNodeB4.mobility.initialZ 0m
config *.gNodeB4.mobility.constraintAreaMinX 1070m
config *.gNodeB4.mobility.constraintAreaMaxX 1070m
config *.gNodeB4.mobility.constraintAreaMinY 2569m
config *.gNodeB4.mobility.constraintAreaMaxY 2569m
config *.gNodeB4.mobility.constraintAreaMinZ 0m
config *.gNodeB4.mobility.constraintAreaMaxZ 0m
config **.numBands 25
config **.ueTxPower 20
config **.eNodeBTxPower 40
config *.car[*].cellularNic.nrPhy.dynamicCellAssociation true
config *.car[*].masterId 0
config *.car[*].macCellId 0
config *.car[*].nrMasterId 1
config *.car[*].nrMacCellId 1
config *.car[*].cellularNic.nrPhy.handoverThreshold -4
config **.gNodeB1.macCellId 1
config **.gNodeB1.macNodeId 1
config **.gNodeB2.macCellId 2
config **.gNodeB2.macNodeId 2
config **.gNodeB3.macCellId 3
config **.gNodeB3.macNodeId 3
config **.gNodeB4.macCellId 4
config **.gNodeB4.macNodeId 4
config *.car[*].cellularNic.nrMac.dynamicCellAssociation true
config *.car[*].cellularNic.nrMac.enableHandover true
config *.car[*].cellularNic.nrPhy.enableHandover true
config *.gNodeB*.cellularNic.phy.enableHandover true
config *.gNodeB*.cellularNic.nrMac.enableHandover true
config *.gNodeB*.cellularNic.phy.handoverLatency 5ms
config *.gNodeB*.cellularNic.nrMac.handoverLatency 5ms
config *.gNodeB*.cellInfo.broadcastMessageInterval 1s
config *.gNodeB*.x2App[*].server.localPort "5000 + ancestorIndex(1)"
config *.gNodeB*.numX2Apps 2
config *.gNodeB1.x2App[0].client.connectAddress "\"gNodeB2%x2ppp0\""
config *.gNodeB1.x2App[1].client.connectAddress "\"gNodeB3%x2ppp0\""
config *.gNodeB2.x2App[0].client.connectAddress "\"gNodeB1%x2ppp0\""
config *.gNodeB2.x2App[1].client.connectAddress "\"gNodeB4%x2ppp0\""
config *.gNodeB3.x2App[0].client.connectAddress "\"gNodeB1%x2ppp0\""
config *.gNodeB3.x2App[1].client.connectAddress "\"gNodeB4%x2ppp0\""
config *.gNodeB4.x2App[0].client.connectAddress "\"gNodeB3%x2ppp0\""
config *.gNodeB4.x2App[1].client.connectAddress "\"gNodeB2%x2ppp0\""
config **.sctp.nagleEnabled false
config **.sctp.enableHeartbeats false
config *.visualizer.*.obstacleLossVisualizer.displayIntersections true
config *.visualizer.*.obstacleLossVisualizer.displayFaceNormalVectors true
config *.visualizer.*.obstacleLossVisualizer.intersectionLineColor "\"yellow\""
config *.visualizer.*.mediumVisualizer.signalPropagationAnimationSpeed 500/3e8
config *.visualizer.*.mediumVisualizer.signalTransmissionAnimationSpeed 50000/3e8
config *.visualizer.*.mediumVisualizer.displaySignals true
config *.visualizer.canvasVisualizer.mediumVisualizer.displaySignalDepartures false
config *.visualizer.canvasVisualizer.mediumVisualizer.displaySignalArrivals false
config *.visualizer.*.physicalLinkVisualizer.displayLinks true
config **.scalar-recording true
config **.vector-recording true
config **.mobility.tracemobility true
config **.car[*].mobility.posX.vector-recording true
config **.car[*].mobility.posY.vector-recording true
config **.car[*].mobility.posZ.vector-recording true
config **.car[*].mobility.speed.vector-recording true
config **.car[*].mobility.lastPosition.vector-recording true
config **.car[*].app[*].voIPGeneratedThroughput.vector-recording true
config **.car[*].cellularNic.nrPhy.servingCell.vector-recording true
config **.car[*].cellularNic.nrMac.macDelayDL.vector-recording true
config **.car[*].cellularNic.nrMac.macDelayUL.vector-recording true
config **.car[*].cellularNic.nrMac.macThroughputDL.vector-recording true
config **.car[*].cellularNic.nrMac.macThroughputUL.vector-recording true
config **.car[*].cellularNic.nrMac.macCellPacketLossDL.vector-recording true
config **.car[*].cellularNic.nrMac.macCellPacketLossUL.vector-recording true
config **.car[*].cellularNic.nrMac.macBufferOverflowDL.vector-recording true
config **.car[*].cellularNic.nrMac.macBufferOverflowUL.vector-recording true
config **.car[*].cellularNic.nrMac.harqErrorRateDL.vector-recording true
config **.car[*].cellularNic.nrMac.harqErrorRateUL.vector-recording true
config **.car[*].cellularNic.nrMac.harqTxAttemptsDL.vector-recording true
config **.car[*].cellularNic.nrMac.harqTxAttemptsUL.vector-recording true
config **.car[*].cellularNic.nrMac.receivedPacketFromUpperLayer.vector-recording true
config **.car[*].cellularNic.nrMac.receivedPacketFromLowerLayer.vector-recording true
config **.car[*].cellularNic.nrMac.sentPacketToUpperLayer.vector-recording true
config **.car[*].cellularNic.nrMac.sentPacketToLowerLayer.vector-recording true
config **.car[*].cellularNic.nrMac.measuredItbs.vector-recording true
config **.car[*].cellularNic.nrMac.macDelayD2D.vector-recording true
config **.car[*].cellularNic.nrMac.macThroughputD2D.vector-recording true
config **.car[*].cellularNic.nrMac.rcvdD2DModeSwitchNotification.vector-recording true
config **.car[*].cellularNic.nrPhy.averageCqiDL.vector-recording true
config **.car[*].cellularNic.nrPhy.averageCqiUL.vector-recording true

vector 0 Highway5G.server.ppp[0].queue queueLength:vector ETV
attr autoWarmupFilter false
attr interpolationmode sample-hold
attr recordingmode vector
attr source "warmup(atomic(constant0(packetPushEnded) + count(packetPushStarted) - count(packetPulled) - count(packetRemoved) - count(packetDropped)))"
attr title "queue length"
attr unit pk
vector 1 Highway5G.server.ppp[0].queue queueBitLength:vector ETV
attr autoWarmupFilter false
attr interpolationmode sample-hold
attr recordingmode vector
attr source "warmup(atomic(constant0(packetPushEnded) + sum(packetLength(packetPushStarted)) - sum(packetLength(packetPulled)) - sum(packetLength(packetRemoved)) - sum(packetLength(packetDropped))))"
attr title "queue bit length"
attr unit b
vector 2 Highway5G.server.ppp[0].ppp transmissionState:vector ETV
attr interpolationmode sample-hold
attr recordingmode vector
attr source transmissionStateChanged
attr title "tx state"
vector 3 Highway5G.server.udp passedUpPk:vector(count) ETV
attr interpolationmode none
attr recordingmode vector(count)
attr source packetSentToUpper
attr title "packets passed up, count"
vector 4 Highway5G.server.udp droppedPkWrongPort:vector(count) ETV
attr interpolationmode none
attr recordingmode vector(count)
attr source packetDropReasonIsNoPortFound(packetDropped)
attr title "packets dropped (wrong port), count"
vector 5 Highway5G.server.udp droppedPkBadChecksum:vector(count) ETV
attr interpolationmode none
attr recordingmode vector(count)
attr source packetDropReasonIsIncorrectlyReceived(packetDropped)
attr title "packets dropped (checksum error), count"
vector 6 Highway5G.router.ppp[0].queue queueLength:vector ETV
attr autoWarmupFilter false
attr interpolationmode sample-hold
attr recordingmode vector
attr source "warmup(atomic(constant0(packetPushEnded) + count(packetPushStarted) - count(packetPulled) - count(packetRemoved) - count(packetDropped)))"
attr title "queue length"
attr unit pk
vector 7 Highway5G.router.ppp[0].queue queueBitLength:vector ETV
attr autoWarmupFilter false
attr interpolationmode sample-hold
attr recordingmode vector
attr source "warmup(atomic(constant0(packetPushEnded) + sum(packetLength(packetPushStarted)) - sum(packetLength(packetPulled)) - sum(packetLength(packetRemoved)) - sum(packetLength(packetDropped))))"
attr title "queue bit length"
attr unit b
vector 8 Highway5G.router.ppp[0].ppp transmissionState:vector ETV
attr interpolationmode sample-hold
attr recordingmode vector
attr source transmissionStateChanged
attr title "tx state"
vector 9 Highway5G.router.ppp[1].queue queueLength:vector ETV
attr autoWarmupFilter false
attr interpolationmode sample-hold
attr recordingmode vector
attr source "warmup(atomic(constant0(packetPushEnded) + count(packetPushStarted) - count(packetPulled) - count(packetRemoved) - count(packetDropped)))"
attr title "queue length"
attr unit pk
vector 10 Highway5G.router.ppp[1].queue queueBitLength:vector ETV
attr autoWarmupFilter false
attr interpolationmode sample-hold
attr recordingmode vector
attr source "warmup(atomic(constant0(packetPushEnded) + sum(packetLength(packetPushStarted)) - sum(packetLength(packetPulled)) - sum(packetLength(packetRemoved)) - sum(packetLength(packetDropped))))"
attr title "queue bit length"
attr unit b
vector 11 Highway5G.router.ppp[1].ppp transmissionState:vector ETV
attr interpolationmode sample-hold
attr recordingmode vector
attr source transmissionStateChanged
attr title "tx state"
vector 12 Highway5G.upf.ppp[0].queue queueLength:vector ETV
attr autoWarmupFilter false
attr interpolationmode sample-hold
attr recordingmode vector
attr source "warmup(atomic(constant0(packetPushEnded) + count(packetPushStarted) - count(packetPulled) - count(packetRemoved) - count(packetDropped)))"
attr title "queue length"
attr unit pk
vector 13 Highway5G.upf.ppp[0].queue queueBitLength:vector ETV
attr autoWarmupFilter false
attr interpolationmode sample-hold
attr recordingmode vector
attr source "warmup(atomic(constant0(packetPushEnded) + sum(packetLength(packetPushStarted)) - sum(packetLength(packetPulled)) - sum(packetLength(packetRemoved)) - sum(packetLength(packetDropped))))"
attr title "queue bit length"
attr unit b
vector 14 Highway5G.upf.ppp[0].ppp transmissionState:vector ETV
attr interpolationmode sample-hold
attr recordingmode vector
attr source transmissionStateChanged
attr title "tx state"
vector 15 Highway5G.upf.ppp[1].queue queueLength:vector ETV
attr autoWarmupFilter false
attr interpolationmode sample-hold
attr recordingmode vector
attr source "warmup(atomic(constant0(packetPushEnded) + count(packetPushStarted) - count(packetPulled) - count(packetRemoved) - count(packetDropped)))"
attr title "queue length"
attr unit pk
vector 16 Highway5G.upf.ppp[1].queue queueBitLength:vector ETV
attr autoWarmupFilter false
attr interpolationmode sample-hold
attr recordingmode vector
attr source "warmup(atomic(constant0(packetPushEnded) + sum(packetLength(packetPushStarted)) - sum(packetLength(packetPulled)) - sum(packetLength(packetRemoved)) - sum(packetLength(packetDropped))))"
attr title "queue bit length"
attr unit b
vector 17 Highway5G.upf.ppp[1].ppp transmissionState:vector ETV
attr interpolationmode sample-hold
attr recordingmode vector
attr source transmissionStateChanged
attr title "tx state"
vector 18 Highway5G.upf.ppp[2].queue queueLength:vector ETV
attr autoWarmupFilter false
attr interpolationmode sample-hold
attr recordingmode vector
attr source "warmup(atomic(constant0(packetPushEnded) + count(packetPushStarted) - count(packetPulled) - count(packetRemoved) - count(packetDropped)))"
attr title "queue length"
attr unit pk
vector 19 Highway5G.upf.ppp[2].queue queueBitLength:vector ETV
attr autoWarmupFilter false
attr interpolationmode sample-hold
attr recordingmode vector
attr source "warmup(atomic(constant0(packetPushEnded) + sum(packetLength(packetPushStarted)) - sum(packetLength(packetPulled)) - sum(packetLength(packetRemoved)) - sum(packetLength(packetDropped))))"
attr title "queue bit length"
attr unit b
vector 20 Highway5G.upf.ppp[2].ppp transmissionState:vector ETV
attr interpolationmode sample-hold
attr recordingmode vector
attr source transmissionStateChanged
attr title "tx state"
vector 21 Highway5G.upf.ppp[3].queue queueLength:vector ETV
attr autoWarmupFilter false
attr interpolationmode sample-hold
attr recordingmode vector
attr source "warmup(atomic(constant0(packetPushEnded) + count(packetPushStarted) - count(packetPulled) - count(packetRemoved) - count(packetDropped)))"
attr title "queue length"
attr unit pk
vector 22 Highway5G.upf.ppp[3].queue queueBitLength:vector ETV
attr autoWarmupFilter false
attr interpolationmode sample-hold
attr recordingmode vector
attr source "warmup(atomic(constant0(packetPushEnded) + sum(packetLength(packetPushStarted)) - sum(packetLength(packetPulled)) - sum(packetLength(packetRemoved)) - sum(packetLength(packetDropped))))"
attr title "queue bit length"
attr unit b
vector 23 Highway5G.upf.ppp[3].ppp transmissionState:vector ETV
attr interpolationmode sample-hold
attr recordingmode vector
attr source transmissionStateChanged
attr title "tx state"
vector 24 Highway5G.upf.pppIf.queue queueLength:vector ETV
attr autoWarmupFilter false
attr interpolationmode sample-hold
attr recordingmode vector
attr source "warmup(atomic(constant0(packetPushEnded) + count(packetPushStarted) - count(packetPulled) - count(packetRemoved) - count(packetDropped)))"
attr title "queue length"
attr unit pk
vector 25 Highway5G.upf.pppIf.queue queueBitLength:vector ETV
attr autoWarmupFilter false
attr interpolationmode sample-hold
attr recordingmode vector
attr source "warmup(atomic(constant0(packetPushEnded) + sum(packetLength(packetPushStarted)) - sum(packetLength(packetPulled)) - sum(packetLength(packetRemoved)) - sum(packetLength(packetDropped))))"
attr title "queue bit length"
attr unit b
vector 26 Highway5G.upf.pppIf.ppp transmissionState:vector ETV
attr interpolationmode sample-hold
attr recordingmode vector
attr source transmissionStateChanged
attr title "tx state"
vector 27 Highway5G.upf.udp passedUpPk:vector(count) ETV
attr interpolationmode none
attr recordingmode vector(count)
attr source packetSentToUpper
attr title "packets passed up, count"
vector 28 Highway5G.upf.udp droppedPkWrongPort:vector(count) ETV
attr interpolationmode none
attr recordingmode vector(count)
attr source packetDropReasonIsNoPortFound(packetDropped)
attr title "packets dropped (wrong port), count"
vector 29 Highway5G.upf.udp droppedPkBadChecksum:vector(count) ETV
attr interpolationmode none
attr recordingmode vector(count)
attr source packetDropReasonIsIncorrectlyReceived(packetDropped)
attr title "packets dropped (checksum error), count"
vector 30 Highway5G.gNodeB1.pppIf.queue queueLength:vector ETV
attr autoWarmupFilter false
attr interpolationmode sample-hold
attr recordingmode vector
attr source "warmup(atomic(constant0(packetPushEnded) + count(packetPushStarted) - count(packetPulled) - count(packetRemoved) - count(packetDropped)))"
attr title "queue length"
attr unit pk
vector 31 Highway5G.gNodeB1.pppIf.queue queueBitLength:vector ETV
attr autoWarmupFilter false
attr interpolationmode sample-hold
attr recordingmode vector
attr source "warmup(atomic(constant0(packetPushEnded) + sum(packetLength(packetPushStarted)) - sum(packetLength(packetPulled)) - sum(packetLength(packetRemoved)) - sum(packetLength(packetDropped))))"
attr title "queue bit length"
attr unit b
vector 32 Highway5G.gNodeB1.pppIf.ppp transmissionState:vector ETV
attr interpolationmode sample-hold
attr recordingmode vector
attr source transmissionStateChanged
attr title "tx state"
vector 33 Highway5G.gNodeB1.x2ppp[0].queue queueLength:vector ETV
attr autoWarmupFilter false
attr interpolationmode sample-hold
attr recordingmode vector
attr source "warmup(atomic(constant0(packetPushEnded) + count(packetPushStarted) - count(packetPulled) - count(packetRemoved) - count(packetDropped)))"
attr title "queue length"
attr unit pk
vector 34 Highway5G.gNodeB1.x2ppp[0].queue queueBitLength:vector ETV
attr autoWarmupFilter false
attr interpolationmode sample-hold
attr recordingmode vector
attr source "warmup(atomic(constant0(packetPushEnded) + sum(packetLength(packetPushStarted)) - sum(packetLength(packetPulled)) - sum(packetLength(packetRemoved)) - sum(packetLength(packetDropped))))"
attr title "queue bit length"
attr unit b
vector 35 Highway5G.gNodeB1.x2ppp[0].ppp transmissionState:vector ETV
attr interpolationmode sample-hold
attr recordingmode vector
attr source transmissionStateChanged
attr title "tx state"
vector 36 Highway5G.gNodeB1.x2ppp[1].queue queueLength:vector ETV
attr autoWarmupFilter false
attr interpolationmode sample-hold
attr recordingmode vector
attr source "warmup(atomic(constant0(packetPushEnded) + count(packetPushStarted) - count(packetPulled) - count(packetRemoved) - count(packetDropped)))"
attr title "queue length"
attr unit pk
vector 37 Highway5G.gNodeB1.x2ppp[1].queue queueBitLength:vector ETV
attr autoWarmupFilter false
attr interpolationmode sample-hold
attr recordingmode vector
attr source "warmup(atomic(constant0(packetPushEnded) + sum(packetLength(packetPushStarted)) - sum(packetLength(packetPulled)) - sum(packetLength(packetRemoved)) - sum(packetLength(packetDropped))))"
attr title "queue bit length"
attr unit b
vector 38 Highway5G.gNodeB1.x2ppp[1].ppp transmissionState:vector ETV
attr interpolationmode sample-hold
attr recordingmode vector
attr source transmissionStateChanged
attr title "tx state"
vector 39 Highway5G.gNodeB1.pppMEHostIf.queue queueLength:vector ETV
attr autoWarmupFilter false
attr interpolationmode sample-hold
attr recordingmode vector
attr source "warmup(atomic(constant0(packetPushEnded) + count(packetPushStarted) - count(packetPulled) - count(packetRemoved) - count(packetDropped)))"
attr title "queue length"
attr unit pk
vector 40 Highway5G.gNodeB1.pppMEHostIf.queue queueBitLength:vector ETV
attr autoWarmupFilter false
attr interpolationmode sample-hold
attr recordingmode vector
attr source "warmup(atomic(constant0(packetPushEnded) + sum(packetLength(packetPushStarted)) - sum(packetLength(packetPulled)) - sum(packetLength(packetRemoved)) - sum(packetLength(packetDropped))))"
attr title "queue bit length"
attr unit b
vector 41 Highway5G.gNodeB1.pppMEHostIf.ppp transmissionState:vector ETV
attr interpolationmode sample-hold
attr recordingmode vector
attr source transmissionStateChanged
attr title "tx state"
vector 42 Highway5G.gNodeB1.udp passedUpPk:vector(count) ETV
attr interpolationmode none
attr recordingmode vector(count)
attr source packetSentToUpper
attr title "packets passed up, count"
vector 43 Highway5G.gNodeB1.udp droppedPkWrongPort:vector(count) ETV
attr interpolationmode none
attr recordingmode vector(count)
attr source packetDropReasonIsNoPortFound(packetDropped)
attr title "packets dropped (wrong port), count"
vector 44 Highway5G.gNodeB1.udp droppedPkBadChecksum:vector(count) ETV
attr interpolationmode none
attr recordingmode vector(count)
attr source packetDropReasonIsIncorrectlyReceived(packetDropped)
attr title "packets dropped (checksum error), count"
vector 45 Highway5G.gNodeB2.pppIf.queue queueLength:vector ETV
attr autoWarmupFilter false
attr interpolationmode sample-hold
attr recordingmode vector
attr source "warmup(atomic(constant0(packetPushEnded) + count(packetPushStarted) - count(packetPulled) - count(packetRemoved) - count(packetDropped)))"
attr title "queue length"
attr unit pk
vector 46 Highway5G.gNodeB2.pppIf.queue queueBitLength:vector ETV
attr autoWarmupFilter false
attr interpolationmode sample-hold
attr recordingmode vector
attr source "warmup(atomic(constant0(packetPushEnded) + sum(packetLength(packetPushStarted)) - sum(packetLength(packetPulled)) - sum(packetLength(packetRemoved)) - sum(packetLength(packetDropped))))"
attr title "queue bit length"
attr unit b
vector 47 Highway5G.gNodeB2.pppIf.ppp transmissionState:vector ETV
attr interpolationmode sample-hold
attr recordingmode vector
attr source transmissionStateChanged
attr title "tx state"
vector 48 Highway5G.gNodeB2.x2ppp[0].queue queueLength:vector ETV
attr autoWarmupFilter false
attr interpolationmode sample-hold
attr recordingmode vector
attr source "warmup(atomic(constant0(packetPushEnded) + count(packetPushStarted) - count(packetPulled) - count(packetRemoved) - count(packetDropped)))"
attr title "queue length"
attr unit pk
vector 49 Highway5G.gNodeB2.x2ppp[0].queue queueBitLength:vector ETV
attr autoWarmupFilter false
attr interpolationmode sample-hold
attr recordingmode vector
attr source "warmup(atomic(constant0(packetPushEnded) + sum(packetLength(packetPushStarted)) - sum(packetLength(packetPulled)) - sum(packetLength(packetRemoved)) - sum(packetLength(packetDropped))))"
attr title "queue bit length"
attr unit b
vector 50 Highway5G.gNodeB2.x2ppp[0].ppp transmissionState:vector ETV
attr interpolationmode sample-hold
attr recordingmode vector
attr source transmissionStateChanged
attr title "tx state"
vector 51 Highway5G.gNodeB2.x2ppp[1].queue queueLength:vector ETV
attr autoWarmupFilter false
attr interpolationmode sample-hold
attr recordingmode vector
attr source "warmup(atomic(constant0(packetPushEnded) + count(packetPushStarted) - count(packetPulled) - count(packetRemoved) - count(packetDropped)))"
attr title "queue length"
attr unit pk
vector 52 Highway5G.gNodeB2.x2ppp[1].queue queueBitLength:vector ETV
attr autoWarmupFilter false
attr interpolationmode sample-hold
attr recordingmode vector
attr source "warmup(atomic(constant0(packetPushEnded) + sum(packetLength(packetPushStarted)) - sum(packetLength(packetPulled)) - sum(packetLength(packetRemoved)) - sum(packetLength(packetDropped))))"
attr title "queue bit length"
attr unit b
vector 53 Highway5G.gNodeB2.x2ppp[1].ppp transmissionState:vector ETV
attr interpolationmode sample-hold
attr recordingmode vector
attr source transmissionStateChanged
attr title "tx state"
vector 54 Highway5G.gNodeB2.pppMEHostIf.queue queueLength:vector ETV
attr autoWarmupFilter false
attr interpolationmode sample-hold
attr recordingmode vector
attr source "warmup(atomic(constant0(packetPushEnded) + count(packetPushStarted) - count(packetPulled) - count(packetRemoved) - count(packetDropped)))"
attr title "queue length"
attr unit pk
vector 55 Highway5G.gNodeB2.pppMEHostIf.queue queueBitLength:vector ETV
attr autoWarmupFilter false
attr interpolationmode sample-hold
attr recordingmode vector
attr source "warmup(atomic(constant0(packetPushEnded) + sum(packetLength(packetPushStarted)) - sum(packetLength(packetPulled)) - sum(packetLength(packetRemoved)) - sum(packetLength(packetDropped))))"
attr title "queue bit length"
attr unit b
vector 56 Highway5G.gNodeB2.pppMEHostIf.ppp transmissionState:vector ETV
attr interpolationmode sample-hold
attr recordingmode vector
attr source transmissionStateChanged
attr title "tx state"
vector 57 Highway5G.gNodeB2.udp passedUpPk:vector(count) ETV
attr interpolationmode none
attr recordingmode vector(count)
attr source packetSentToUpper
attr title "packets passed up, count"
vector 58 Highway5G.gNodeB2.udp droppedPkWrongPort:vector(count) ETV
attr interpolationmode none
attr recordingmode vector(count)
attr source packetDropReasonIsNoPortFound(packetDropped)
attr title "packets dropped (wrong port), count"
vector 59 Highway5G.gNodeB2.udp droppedPkBadChecksum:vector(count) ETV
attr interpolationmode none
attr recordingmode vector(count)
attr source packetDropReasonIsIncorrectlyReceived(packetDropped)
attr title "packets dropped (checksum error), count"
vector 60 Highway5G.gNodeB3.pppIf.queue queueLength:vector ETV
attr autoWarmupFilter false
attr interpolationmode sample-hold
attr recordingmode vector
attr source "warmup(atomic(constant0(packetPushEnded) + count(packetPushStarted) - count(packetPulled) - count(packetRemoved) - count(packetDropped)))"
attr title "queue length"
attr unit pk
vector 61 Highway5G.gNodeB3.pppIf.queue queueBitLength:vector ETV
attr autoWarmupFilter false
attr interpolationmode sample-hold
attr recordingmode vector
attr source "warmup(atomic(constant0(packetPushEnded) + sum(packetLength(packetPushStarted)) - sum(packetLength(packetPulled)) - sum(packetLength(packetRemoved)) - sum(packetLength(packetDropped))))"
attr title "queue bit length"
attr unit b
vector 62 Highway5G.gNodeB3.pppIf.ppp transmissionState:vector ETV
attr interpolationmode sample-hold
attr recordingmode vector
attr source transmissionStateChanged
attr title "tx state"
vector 63 Highway5G.gNodeB3.x2ppp[0].queue queueLength:vector ETV
attr autoWarmupFilter false
attr interpolationmode sample-hold
attr recordingmode vector
attr source "warmup(atomic(constant0(packetPushEnded) + count(packetPushStarted) - count(packetPulled) - count(packetRemoved) - count(packetDropped)))"
attr title "queue length"
attr unit pk
vector 64 Highway5G.gNodeB3.x2ppp[0].queue queueBitLength:vector ETV
attr autoWarmupFilter false
attr interpolationmode sample-hold
attr recordingmode vector
attr source "warmup(atomic(constant0(packetPushEnded) + sum(packetLength(packetPushStarted)) - sum(packetLength(packetPulled)) - sum(packetLength(packetRemoved)) - sum(packetLength(packetDropped))))"
attr title "queue bit length"
attr unit b
vector 65 Highway5G.gNodeB3.x2ppp[0].ppp transmissionState:vector ETV
attr interpolationmode sample-hold
attr recordingmode vector
attr source transmissionStateChanged
attr title "tx state"
vector 66 Highway5G.gNodeB3.x2ppp[1].queue queueLength:vector ETV
attr autoWarmupFilter false
attr interpolationmode sample-hold
attr recordingmode vector
attr source "warmup(atomic(constant0(packetPushEnded) + count(packetPushStarted) - count(packetPulled) - count(packetRemoved) - count(packetDropped)))"
attr title "queue length"
attr unit pk
vector 67 Highway5G.gNodeB3.x2ppp[1].queue queueBitLength:vector ETV
attr autoWarmupFilter false
attr interpolationmode sample-hold
attr recordingmode vector
attr source "warmup(atomic(constant0(packetPushEnded) + sum(packetLength(packetPushStarted)) - sum(packetLength(packetPulled)) - sum(packetLength(packetRemoved)) - sum(packetLength(packetDropped))))"
attr title "queue bit length"
attr unit b
vector 68 Highway5G.gNodeB3.x2ppp[1].ppp transmissionState:vector ETV
attr interpolationmode sample-hold
attr recordingmode vector
attr source transmissionStateChanged
attr title "tx state"
vector 69 Highway5G.gNodeB3.pppMEHostIf.queue queueLength:vector ETV
attr autoWarmupFilter false
attr interpolationmode sample-hold
attr recordingmode vector
attr source "warmup(atomic(constant0(packetPushEnded) + count(packetPushStarted) - count(packetPulled) - count(packetRemoved) - count(packetDropped)))"
attr title "queue length"
attr unit pk
vector 70 Highway5G.gNodeB3.pppMEHostIf.queue queueBitLength:vector ETV
attr autoWarmupFilter false
attr interpolationmode sample-hold
attr recordingmode vector
attr source "warmup(atomic(constant0(packetPushEnded) + sum(packetLength(packetPushStarted)) - sum(packetLength(packetPulled)) - sum(packetLength(packetRemoved)) - sum(packetLength(packetDropped))))"
attr title "queue bit length"
attr unit b
vector 71 Highway5G.gNodeB3.pppMEHostIf.ppp transmissionState:vector ETV
attr interpolationmode sample-hold
attr recordingmode vector
attr source transmissionStateChanged
attr title "tx state"
vector 72 Highway5G.gNodeB3.udp passedUpPk:vector(count) ETV
attr interpolationmode none
attr recordingmode vector(count)
attr source packetSentToUpper
attr title "packets passed up, count"
vector 73 Highway5G.gNodeB3.udp droppedPkWrongPort:vector(count) ETV
attr interpolationmode none
attr recordingmode vector(count)
attr source packetDropReasonIsNoPortFound(packetDropped)
attr title "packets dropped (wrong port), count"
vector 74 Highway5G.gNodeB3.udp droppedPkBadChecksum:vector(count) ETV
attr interpolationmode none
attr recordingmode vector(count)
attr source packetDropReasonIsIncorrectlyReceived(packetDropped)
attr title "packets dropped (checksum error), count"
vector 75 Highway5G.gNodeB4.pppIf.queue queueLength:vector ETV
attr autoWarmupFilter false
attr interpolationmode sample-hold
attr recordingmode vector
attr source "warmup(atomic(constant0(packetPushEnded) + count(packetPushStarted) - count(packetPulled) - count(packetRemoved) - count(packetDropped)))"
attr title "queue length"
attr unit pk
vector 76 Highway5G.gNodeB4.pppIf.queue queueBitLength:vector ETV
attr autoWarmupFilter false
attr interpolationmode sample-hold
attr recordingmode vector
attr source "warmup(atomic(constant0(packetPushEnded) + sum(packetLength(packetPushStarted)) - sum(packetLength(packetPulled)) - sum(packetLength(packetRemoved)) - sum(packetLength(packetDropped))))"
attr title "queue bit length"
attr unit b
vector 77 Highway5G.gNodeB4.pppIf.ppp transmissionState:vector ETV
attr interpolationmode sample-hold
attr recordingmode vector
attr source transmissionStateChanged
attr title "tx state"
vector 78 Highway5G.gNodeB4.x2ppp[0].queue queueLength:vector ETV
attr autoWarmupFilter false
attr interpolationmode sample-hold
attr recordingmode vector
attr source "warmup(atomic(constant0(packetPushEnded) + count(packetPushStarted) - count(packetPulled) - count(packetRemoved) - count(packetDropped)))"
attr title "queue length"
attr unit pk
vector 79 Highway5G.gNodeB4.x2ppp[0].queue queueBitLength:vector ETV
attr autoWarmupFilter false
attr interpolationmode sample-hold
attr recordingmode vector
attr source "warmup(atomic(constant0(packetPushEnded) + sum(packetLength(packetPushStarted)) - sum(packetLength(packetPulled)) - sum(packetLength(packetRemoved)) - sum(packetLength(packetDropped))))"
attr title "queue bit length"
attr unit b
vector 80 Highway5G.gNodeB4.x2ppp[0].ppp transmissionState:vector ETV
attr interpolationmode sample-hold
attr recordingmode vector
attr source transmissionStateChanged
attr title "tx state"
vector 81 Highway5G.gNodeB4.x2ppp[1].queue queueLength:vector ETV
attr autoWarmupFilter false
attr interpolationmode sample-hold
attr recordingmode vector
attr source "warmup(atomic(constant0(packetPushEnded) + count(packetPushStarted) - count(packetPulled) - count(packetRemoved) - count(packetDropped)))"
attr title "queue length"
attr unit pk
vector 82 Highway5G.gNodeB4.x2ppp[1].queue queueBitLength:vector ETV
attr autoWarmupFilter false
attr interpolationmode sample-hold
attr recordingmode vector
attr source "warmup(atomic(constant0(packetPushEnded) + sum(packetLength(packetPushStarted)) - sum(packetLength(packetPulled)) - sum(packetLength(packetRemoved)) - sum(packetLength(packetDropped))))"
attr title "queue bit length"
attr unit b
vector 83 Highway5G.gNodeB4.x2ppp[1].ppp transmissionState:vector ETV
attr interpolationmode sample-hold
attr recordingmode vector
attr source transmissionStateChanged
attr title "tx state"
vector 84 Highway5G.gNodeB4.pppMEHostIf.queue queueLength:vector ETV
attr autoWarmupFilter false
attr interpolationmode sample-hold
attr recordingmode vector
attr source "warmup(atomic(constant0(packetPushEnded) + count(packetPushStarted) - count(packetPulled) - count(packetRemoved) - count(packetDropped)))"
attr title "queue length"
attr unit pk
vector 85 Highway5G.gNodeB4.pppMEHostIf.queue queueBitLength:vector ETV
attr autoWarmupFilter false
attr interpolationmode sample-hold
attr recordingmode vector
attr source "warmup(atomic(constant0(packetPushEnded) + sum(packetLength(packetPushStarted)) - sum(packetLength(packetPulled)) - sum(packetLength(packetRemoved)) - sum(packetLength(packetDropped))))"
attr title "queue bit length"
attr unit b
vector 86 Highway5G.gNodeB4.pppMEHostIf.ppp transmissionState:vector ETV
attr interpolationmode sample-hold
attr recordingmode vector
attr source transmissionStateChanged
attr title "tx state"
vector 87 Highway5G.gNodeB4.udp passedUpPk:vector(count) ETV
attr interpolationmode none
attr recordingmode vector(count)
attr source packetSentToUpper
attr title "packets passed up, count"
vector 88 Highway5G.gNodeB4.udp droppedPkWrongPort:vector(count) ETV
attr interpolationmode none
attr recordingmode vector(count)
attr source packetDropReasonIsNoPortFound(packetDropped)
attr title "packets dropped (wrong port), count"
vector 89 Highway5G.gNodeB4.udp droppedPkBadChecksum:vector(count) ETV
attr interpolationmode none
attr recordingmode vector(count)
attr source packetDropReasonIsIncorrectlyReceived(packetDropped)
attr title "packets dropped (checksum error), count"
vector 90 Highway5G.gNodeB1.sctp "Throughput of Association 94" ETV
vector 91 Highway5G.gNodeB1.sctp "Throughput of Association 95" ETV
vector 92 Highway5G.gNodeB2.sctp "Throughput of Association 96" ETV
vector 93 Highway5G.gNodeB2.sctp "Throughput of Association 97" ETV
vector 94 Highway5G.gNodeB3.sctp "Throughput of Association 98" ETV
vector 95 Highway5G.gNodeB3.sctp "Throughput of Association 99" ETV
vector 96 Highway5G.gNodeB4.sctp "Throughput of Association 100" ETV
vector 97 Highway5G.gNodeB4.sctp "Throughput of Association 101" ETV
vector 98 Highway5G.gNodeB1.sctp "Throughput of Association 49" ETV
vector 99 Highway5G.gNodeB1.sctp "Fast Recovery State 49:192.168.6.2" ETV
vector 100 Highway5G.gNodeB1.sctp "Throughput of Association 50" ETV
vector 101 Highway5G.gNodeB1.sctp "Fast Recovery State 50:192.168.7.2" ETV
vector 102 Highway5G.gNodeB2.sctp "Throughput of Association 54" ETV
vector 103 Highway5G.gNodeB2.sctp "Fast Recovery State 54:192.168.6.1" ETV
vector 104 Highway5G.gNodeB2.sctp "Throughput of Association 55" ETV
vector 105 Highway5G.gNodeB2.sctp "Fast Recovery State 55:192.168.11.2" ETV
vector 106 Highway5G.gNodeB3.sctp "Throughput of Association 59" ETV
vector 107 Highway5G.gNodeB3.sctp "Fast Recovery State 59:192.168.6.1" ETV
vector 108 Highway5G.gNodeB3.sctp "Throughput of Association 60" ETV
vector 109 Highway5G.gNodeB3.sctp "Fast Recovery State 60:192.168.11.2" ETV
vector 110 Highway5G.gNodeB4.sctp "Throughput of Association 64" ETV
vector 111 Highway5G.gNodeB4.sctp "Fast Recovery State 64:192.168.7.2" ETV
vector 112 Highway5G.gNodeB4.sctp "Throughput of Association 65" ETV
vector 113 Highway5G.gNodeB4.sctp "Fast Recovery State 65:192.168.6.2" ETV
vector 114 Highway5G.gNodeB1.x2ppp[0].queue incomingPacketLengths:vector ETV
attr interpolationmode none
attr recordingmode vector
attr source packetLength(packetPushStarted)
attr title "incoming packet lengths"
attr unit b
vector 115 Highway5G.gNodeB1.x2ppp[0].queue queueingTime:vector ETV
attr interpolationmode none
attr recordingmode vector
attr source queueingTime(packetPulled)
attr title "queueing times"
attr unit s
vector 116 Highway5G.gNodeB1.x2ppp[0].queue outgoingPacketLengths:vector ETV
attr interpolationmode none
attr recordingmode vector
attr source packetLength(packetPulled)
attr title "outgoing packet lengths"
attr unit b
vector 117 Highway5G.gNodeB1.x2ppp[0].ppp rcvdPkFromHl:vector(packetBytes) ETV
attr interpolationmode none
attr recordingmode vector(packetBytes)
attr source packetReceivedFromUpper
attr title "packets received from higher layer, packetBytes"
vector 118 Highway5G.gNodeB1.x2ppp[0].ppp txPk:vector(packetBytes) ETV
attr interpolationmode none
attr recordingmode vector(packetBytes)
attr source packetSentToLower
attr title "packets transmitted, packetBytes"
vector 119 Highway5G.gNodeB1.x2ppp[1].queue incomingPacketLengths:vector ETV
attr interpolationmode none
attr recordingmode vector
attr source packetLength(packetPushStarted)
attr title "incoming packet lengths"
attr unit b
vector 120 Highway5G.gNodeB1.x2ppp[1].queue queueingTime:vector ETV
attr interpolationmode none
attr recordingmode vector
attr source queueingTime(packetPulled)
attr title "queueing times"
attr unit s
vector 121 Highway5G.gNodeB1.x2ppp[1].queue outgoingPacketLengths:vector ETV
attr interpolationmode none
attr recordingmode vector
attr source packetLength(packetPulled)
attr title "outgoing packet lengths"
attr unit b
vector 122 Highway5G.gNodeB1.x2ppp[1].ppp rcvdPkFromHl:vector(packetBytes) ETV
attr interpolationmode none
attr recordingmode vector(packetBytes)
attr source packetReceivedFromUpper
attr title "packets received from higher layer, packetBytes"
vector 123 Highway5G.gNodeB1.x2ppp[1].ppp txPk:vector(packetBytes) ETV
attr interpolationmode none
attr recordingmode vector(packetBytes)
attr source packetSentToLower
attr title "packets transmitted, packetBytes"
vector 124 Highway5G.gNodeB2.x2ppp[0].queue incomingPacketLengths:vector ETV
attr interpolationmode none
attr recordingmode vector
attr source packetLength(packetPushStarted)
attr title "incoming packet lengths"
attr unit b
vector 125 Highway5G.gNodeB2.x2ppp[0].queue queueingTime:vector ETV
attr interpolationmode none
attr recordingmode vector
attr source queueingTime(packetPulled)
attr title "queueing times"
attr unit s
vector 126 Highway5G.gNodeB2.x2ppp[0].queue outgoingPacketLengths:vector ETV
attr interpolationmode none
attr recordingmode vector
attr source packetLength(packetPulled)
attr title "outgoing packet lengths"
attr unit b
vector 127 Highway5G.gNodeB2.x2ppp[0].ppp rcvdPkFromHl:vector(packetBytes) ETV
attr interpolationmode none
attr recordingmode vector(packetBytes)
attr source packetReceivedFromUpper
attr title "packets received from higher layer, packetBytes"
vector 128 Highway5G.gNodeB2.x2ppp[0].ppp txPk:vector(packetBytes) ETV
attr interpolationmode none
attr recordingmode vector(packetBytes)
attr source packetSentToLower
attr title "packets transmitted, packetBytes"
vector 129 Highway5G.gNodeB2.x2ppp[1].queue incomingPacketLengths:vector ETV
attr interpolationmode none
attr recordingmode vector
attr source packetLength(packetPushStarted)
attr title "incoming packet lengths"
attr unit b
vector 130 Highway5G.gNodeB2.x2ppp[1].queue queueingTime:vector ETV
attr interpolationmode none
attr recordingmode vector
attr source queueingTime(packetPulled)
attr title "queueing times"
attr unit s
vector 131 Highway5G.gNodeB2.x2ppp[1].queue outgoingPacketLengths:vector ETV
attr interpolationmode none
attr recordingmode vector
attr source packetLength(packetPulled)
attr title "outgoing packet lengths"
attr unit b
vector 132 Highway5G.gNodeB2.x2ppp[1].ppp rcvdPkFromHl:vector(packetBytes) ETV
attr interpolationmode none
attr recordingmode vector(packetBytes)
attr source packetReceivedFromUpper
attr title "packets received from higher layer, packetBytes"
vector 133 Highway5G.gNodeB2.x2ppp[1].ppp txPk:vector(packetBytes) ETV
attr interpolationmode none
attr recordingmode vector(packetBytes)
attr source packetSentToLower
attr title "packets transmitted, packetBytes"
vector 134 Highway5G.gNodeB3.x2ppp[0].queue incomingPacketLengths:vector ETV
attr interpolationmode none
attr recordingmode vector
attr source packetLength(packetPushStarted)
attr title "incoming packet lengths"
attr unit b
vector 135 Highway5G.gNodeB3.x2ppp[0].queue queueingTime:vector ETV
attr interpolationmode none
attr recordingmode vector
attr source queueingTime(packetPulled)
attr title "queueing times"
attr unit s
vector 136 Highway5G.gNodeB3.x2ppp[0].queue outgoingPacketLengths:vector ETV
attr interpolationmode none
attr recordingmode vector
attr source packetLength(packetPulled)
attr title "outgoing packet lengths"
attr unit b
vector 137 Highway5G.gNodeB3.x2ppp[0].ppp rcvdPkFromHl:vector(packetBytes) ETV
attr interpolationmode none
attr recordingmode vector(packetBytes)
attr source packetReceivedFromUpper
attr title "packets received from higher layer, packetBytes"
vector 138 Highway5G.gNodeB3.x2ppp[0].ppp txPk:vector(packetBytes) ETV
attr interpolationmode none
attr recordingmode vector(packetBytes)
attr source packetSentToLower
attr title "packets transmitted, packetBytes"
vector 139 Highway5G.gNodeB3.x2ppp[1].queue incomingPacketLengths:vector ETV
attr interpolationmode none
attr recordingmode vector
attr source packetLength(packetPushStarted)
attr title "incoming packet lengths"
attr unit b
vector 140 Highway5G.gNodeB3.x2ppp[1].queue queueingTime:vector ETV
attr interpolationmode none
attr recordingmode vector
attr source queueingTime(packetPulled)
attr title "queueing times"
attr unit s
vector 141 Highway5G.gNodeB3.x2ppp[1].queue outgoingPacketLengths:vector ETV
attr interpolationmode none
attr recordingmode vector
attr source packetLength(packetPulled)
attr title "outgoing packet lengths"
attr unit b
vector 142 Highway5G.gNodeB3.x2ppp[1].ppp rcvdPkFromHl:vector(packetBytes) ETV
attr interpolationmode none
attr recordingmode vector(packetBytes)
attr source packetReceivedFromUpper
attr title "packets received from higher layer, packetBytes"
vector 143 Highway5G.gNodeB3.x2ppp[1].ppp txPk:vector(packetBytes) ETV
attr interpolationmode none
attr recordingmode vector(packetBytes)
attr source packetSentToLower
attr title "packets transmitted, packetBytes"
vector 144 Highway5G.gNodeB4.x2ppp[0].queue incomingPacketLengths:vector ETV
attr interpolationmode none
attr recordingmode vector
attr source packetLength(packetPushStarted)
attr title "incoming packet lengths"
attr unit b
vector 145 Highway5G.gNodeB4.x2ppp[0].queue queueingTime:vector ETV
attr interpolationmode none
attr recordingmode vector
attr source queueingTime(packetPulled)
attr title "queueing times"
attr unit s
vector 146 Highway5G.gNodeB4.x2ppp[0].queue outgoingPacketLengths:vector ETV
attr interpolationmode none
attr recordingmode vector
attr source packetLength(packetPulled)
attr title "outgoing packet lengths"
attr unit b
vector 147 Highway5G.gNodeB4.x2ppp[0].ppp rcvdPkFromHl:vector(packetBytes) ETV
attr interpolationmode none
attr recordingmode vector(packetBytes)
attr source packetReceivedFromUpper
attr title "packets received from higher layer, packetBytes"
vector 148 Highway5G.gNodeB4.x2ppp[0].ppp txPk:vector(packetBytes) ETV
attr interpolationmode none
attr recordingmode vector(packetBytes)
attr source packetSentToLower
attr title "packets transmitted, packetBytes"
vector 149 Highway5G.gNodeB4.x2ppp[1].queue incomingPacketLengths:vector ETV
attr interpolationmode none
attr recordingmode vector
attr source packetLength(packetPushStarted)
attr title "incoming packet lengths"
attr unit b
vector 150 Highway5G.gNodeB4.x2ppp[1].queue queueingTime:vector ETV
attr interpolationmode none
attr recordingmode vector
attr source queueingTime(packetPulled)
attr title "queueing times"
attr unit s
vector 151 Highway5G.gNodeB4.x2ppp[1].queue outgoingPacketLengths:vector ETV
attr interpolationmode none
attr recordingmode vector
attr source packetLength(packetPulled)
attr title "outgoing packet lengths"
attr unit b
vector 152 Highway5G.gNodeB4.x2ppp[1].ppp rcvdPkFromHl:vector(packetBytes) ETV
attr interpolationmode none
attr recordingmode vector(packetBytes)
attr source packetReceivedFromUpper
attr title "packets received from higher layer, packetBytes"
vector 153 Highway5G.gNodeB4.x2ppp[1].ppp txPk:vector(packetBytes) ETV
attr interpolationmode none
attr recordingmode vector(packetBytes)
attr source packetSentToLower
attr title "packets transmitted, packetBytes"
vector 154 Highway5G.gNodeB2.x2ppp[0].ppp rxPkOk:vector(packetBytes) ETV
attr interpolationmode none
attr recordingmode vector(packetBytes)
attr source rxPkOk
attr title "packets received OK, packetBytes"
vector 155 Highway5G.gNodeB2.x2ppp[0].ppp passedUpPk:vector(packetBytes) ETV
attr interpolationmode none
attr recordingmode vector(packetBytes)
attr source packetSentToUpper
attr title "packets passed to higher layer, packetBytes"
vector 156 Highway5G.gNodeB3.x2ppp[0].ppp rxPkOk:vector(packetBytes) ETV
attr interpolationmode none
attr recordingmode vector(packetBytes)
attr source rxPkOk
attr title "packets received OK, packetBytes"
vector 157 Highway5G.gNodeB3.x2ppp[0].ppp passedUpPk:vector(packetBytes) ETV
attr interpolationmode none
attr recordingmode vector(packetBytes)
attr source packetSentToUpper
attr title "packets passed to higher layer, packetBytes"
vector 158 Highway5G.gNodeB1.x2ppp[0].ppp rxPkOk:vector(packetBytes) ETV
attr interpolationmode none
attr recordingmode vector(packetBytes)
attr source rxPkOk
attr title "packets received OK, packetBytes"
vector 159 Highway5G.gNodeB1.x2ppp[0].ppp passedUpPk:vector(packetBytes) ETV
attr interpolationmode none
attr recordingmode vector(packetBytes)
attr source packetSentToUpper
attr title "packets passed to higher layer, packetBytes"
vector 160 Highway5G.gNodeB4.x2ppp[1].ppp rxPkOk:vector(packetBytes) ETV
attr interpolationmode none
attr recordingmode vector(packetBytes)
attr source rxPkOk
attr title "packets received OK, packetBytes"
vector 161 Highway5G.gNodeB4.x2ppp[1].ppp passedUpPk:vector(packetBytes) ETV
attr interpolationmode none
attr recordingmode vector(packetBytes)
attr source packetSentToUpper
attr title "packets passed to higher layer, packetBytes"
vector 162 Highway5G.gNodeB1.x2ppp[1].ppp rxPkOk:vector(packetBytes) ETV
attr interpolationmode none
attr recordingmode vector(packetBytes)
attr source rxPkOk
attr title "packets received OK, packetBytes"
vector 163 Highway5G.gNodeB1.x2ppp[1].ppp passedUpPk:vector(packetBytes) ETV
attr interpolationmode none
attr recordingmode vector(packetBytes)
attr source packetSentToUpper
attr title "packets passed to higher layer, packetBytes"
vector 164 Highway5G.gNodeB4.x2ppp[0].ppp rxPkOk:vector(packetBytes) ETV
attr interpolationmode none
attr recordingmode vector(packetBytes)
attr source rxPkOk
attr title "packets received OK, packetBytes"
vector 165 Highway5G.gNodeB4.x2ppp[0].ppp passedUpPk:vector(packetBytes) ETV
attr interpolationmode none
attr recordingmode vector(packetBytes)
attr source packetSentToUpper
attr title "packets passed to higher layer, packetBytes"
vector 166 Highway5G.gNodeB3.x2ppp[1].ppp rxPkOk:vector(packetBytes) ETV
attr interpolationmode none
attr recordingmode vector(packetBytes)
attr source rxPkOk
attr title "packets received OK, packetBytes"
vector 167 Highway5G.gNodeB3.x2ppp[1].ppp passedUpPk:vector(packetBytes) ETV
attr interpolationmode none
attr recordingmode vector(packetBytes)
attr source packetSentToUpper
attr title "packets passed to higher layer, packetBytes"
vector 168 Highway5G.gNodeB2.x2ppp[1].ppp rxPkOk:vector(packetBytes) ETV
attr interpolationmode none
attr recordingmode vector(packetBytes)
attr source rxPkOk
attr title "packets received OK, packetBytes"
vector 169 Highway5G.gNodeB2.x2ppp[1].ppp passedUpPk:vector(packetBytes) ETV
attr interpolationmode none
attr recordingmode vector(packetBytes)
attr source packetSentToUpper
attr title "packets passed to higher layer, packetBytes"
vector 170 Highway5G.gNodeB2.sctp "Throughput of Association 96" ETV
vector 171 Highway5G.gNodeB2.sctp "Peer Rwnd 96" ETV
vector 172 Highway5G.gNodeB2.sctp "Fast Recovery State 102:10.0.0.1" ETV
vector 173 Highway5G.gNodeB2.sctp "Fast Recovery State 102:192.168.2.2" ETV
vector 174 Highway5G.gNodeB2.sctp "Fast Recovery State 102:192.168.6.1" ETV
vector 175 Highway5G.gNodeB2.sctp "Fast Recovery State 102:192.168.7.1" ETV
vector 176 Highway5G.gNodeB2.sctp "Fast Recovery State 102:192.168.8.1" ETV
vector 177 Highway5G.gNodeB3.sctp "Throughput of Association 98" ETV
vector 178 Highway5G.gNodeB3.sctp "Peer Rwnd 98" ETV
vector 179 Highway5G.gNodeB3.sctp "Fast Recovery State 103:10.0.0.1" ETV
vector 180 Highway5G.gNodeB3.sctp "Fast Recovery State 103:192.168.2.2" ETV
vector 181 Highway5G.gNodeB3.sctp "Fast Recovery State 103:192.168.6.1" ETV
vector 182 Highway5G.gNodeB3.sctp "Fast Recovery State 103:192.168.7.1" ETV
vector 183 Highway5G.gNodeB3.sctp "Fast Recovery State 103:192.168.8.1" ETV
vector 184 Highway5G.gNodeB1.sctp "Throughput of Association 94" ETV
vector 185 Highway5G.gNodeB1.sctp "Peer Rwnd 94" ETV
vector 186 Highway5G.gNodeB1.sctp "Fast Recovery State 104:10.0.0.2" ETV
vector 187 Highway5G.gNodeB1.sctp "Fast Recovery State 104:192.168.3.2" ETV
vector 188 Highway5G.gNodeB1.sctp "Fast Recovery State 104:192.168.6.2" ETV
vector 189 Highway5G.gNodeB1.sctp "Fast Recovery State 104:192.168.9.1" ETV
vector 190 Highway5G.gNodeB1.sctp "Fast Recovery State 104:192.168.10.1" ETV
vector 191 Highway5G.gNodeB4.sctp "Throughput of Association 100" ETV
vector 192 Highway5G.gNodeB4.sctp "Peer Rwnd 100" ETV
vector 193 Highway5G.gNodeB4.sctp "Fast Recovery State 105:10.0.0.2" ETV
vector 194 Highway5G.gNodeB4.sctp "Fast Recovery State 105:192.168.3.2" ETV
vector 195 Highway5G.gNodeB4.sctp "Fast Recovery State 105:192.168.6.2" ETV
vector 196 Highway5G.gNodeB4.sctp "Fast Recovery State 105:192.168.9.1" ETV
vector 197 Highway5G.gNodeB4.sctp "Fast Recovery State 105:192.168.10.1" ETV
vector 198 Highway5G.gNodeB1.sctp "Throughput of Association 95" ETV
vector 199 Highway5G.gNodeB1.sctp "Peer Rwnd 95" ETV
vector 200 Highway5G.gNodeB1.sctp "Fast Recovery State 106:10.0.0.3" ETV
vector 201 Highway5G.gNodeB1.sctp "Fast Recovery State 106:192.168.4.2" ETV
vector 202 Highway5G.gNodeB1.sctp "Fast Recovery State 106:192.168.7.2" ETV
vector 203 Highway5G.gNodeB1.sctp "Fast Recovery State 106:192.168.11.1" ETV
vector 204 Highway5G.gNodeB1.sctp "Fast Recovery State 106:192.168.12.1" ETV
vector 205 Highway5G.gNodeB4.sctp "Throughput of Association 101" ETV
vector 206 Highway5G.gNodeB4.sctp "Peer Rwnd 101" ETV
vector 207 Highway5G.gNodeB4.sctp "Fast Recovery State 107:10.0.0.3" ETV
vector 208 Highway5G.gNodeB4.sctp "Fast Recovery State 107:192.168.4.2" ETV
vector 209 Highway5G.gNodeB4.sctp "Fast Recovery State 107:192.168.7.2" ETV
vector 210 Highway5G.gNodeB4.sctp "Fast Recovery State 107:192.168.11.1" ETV
vector 211 Highway5G.gNodeB4.sctp "Fast Recovery State 107:192.168.12.1" ETV
vector 212 Highway5G.gNodeB3.sctp "Throughput of Association 99" ETV
vector 213 Highway5G.gNodeB3.sctp "Peer Rwnd 99" ETV
vector 214 Highway5G.gNodeB3.sctp "Fast Recovery State 108:10.0.0.4" ETV
vector 215 Highway5G.gNodeB3.sctp "Fast Recovery State 108:192.168.5.2" ETV
vector 216 Highway5G.gNodeB3.sctp "Fast Recovery State 108:192.168.11.2" ETV
vector 217 Highway5G.gNodeB3.sctp "Fast Recovery State 108:192.168.9.2" ETV
vector 218 Highway5G.gNodeB3.sctp "Fast Recovery State 108:192.168.13.1" ETV
vector 219 Highway5G.gNodeB2.sctp "Throughput of Association 97" ETV
vector 220 Highway5G.gNodeB2.sctp "Peer Rwnd 97" ETV
vector 221 Highway5G.gNodeB2.sctp "Fast Recovery State 109:10.0.0.4" ETV
vector 222 Highway5G.gNodeB2.sctp "Fast Recovery State 109:192.168.5.2" ETV
vector 223 Highway5G.gNodeB2.sctp "Fast Recovery State 109:192.168.11.2" ETV
vector 224 Highway5G.gNodeB2.sctp "Fast Recovery State 109:192.168.9.2" ETV
vector 225 Highway5G.gNodeB2.sctp "Fast Recovery State 109:192.168.13.1" ETV
vector 226 Highway5G.gNodeB1.sctp "Peer Rwnd 49" ETV
vector 227 Highway5G.gNodeB1.sctp "Fast Recovery State 49:10.0.0.2" ETV
vector 228 Highway5G.gNodeB1.sctp "Fast Recovery State 49:192.168.3.2" ETV
vector 229 Highway5G.gNodeB1.sctp "Fast Recovery State 49:192.168.9.1" ETV
vector 230 Highway5G.gNodeB1.sctp "Fast Recovery State 49:192.168.10.1" ETV
vector 231 Highway5G.gNodeB1.sctp "Peer Rwnd 50" ETV
vector 232 Highway5G.gNodeB1.sctp "Fast Recovery State 50:10.0.0.3" ETV
vector 233 Highway5G.gNodeB1.sctp "Fast Recovery State 50:192.168.4.2" ETV
vector 234 Highway5G.gNodeB1.sctp "Fast Recovery State 50:192.168.11.1" ETV
vector 235 Highway5G.gNodeB1.sctp "Fast Recovery State 50:192.168.12.1" ETV
vector 236 Highway5G.gNodeB2.sctp "Peer Rwnd 54" ETV
vector 237 Highway5G.gNodeB2.sctp "Fast Recovery State 54:10.0.0.1" ETV
vector 238 Highway5G.gNodeB2.sctp "Fast Recovery State 54:192.168.2.2" ETV
vector 239 Highway5G.gNodeB2.sctp "Fast Recovery State 54:192.168.7.1" ETV
vector 240 Highway5G.gNodeB2.sctp "Fast Recovery State 54:192.168.8.1" ETV
vector 241 Highway5G.gNodeB2.sctp "Peer Rwnd 55" ETV
vector 242 Highway5G.gNodeB2.sctp "Fast Recovery State 55:10.0.0.4" ETV
vector 243 Highway5G.gNodeB2.sctp "Fast Recovery State 55:192.168.5.2" ETV
vector 244 Highway5G.gNodeB2.sctp "Fast Recovery State 55:192.168.9.2" ETV
vector 245 Highway5G.gNodeB2.sctp "Fast Recovery State 55:192.168.13.1" ETV
vector 246 Highway5G.gNodeB3.sctp "Peer Rwnd 59" ETV
vector 247 Highway5G.gNodeB3.sctp "Fast Recovery State 59:10.0.0.1" ETV
vector 248 Highway5G.gNodeB3.sctp "Fast Recovery State 59:192.168.2.2" ETV
vector 249 Highway5G.gNodeB3.sctp "Fast Recovery State 59:192.168.7.1" ETV
vector 250 Highway5G.gNodeB3.sctp "Fast Recovery State 59:192.168.8.1" ETV
vector 251 Highway5G.gNodeB3.sctp "Peer Rwnd 60" ETV
vector 252 Highway5G.gNodeB3.sctp "Fast Recovery State 60:10.0.0.4" ETV
vector 253 Highway5G.gNodeB3.sctp "Fast Recovery State 60:192.168.5.2" ETV
vector 254 Highway5G.gNodeB3.sctp "Fast Recovery State 60:192.168.9.2" ETV
vector 255 Highway5G.gNodeB3.sctp "Fast Recovery State 60:192.168.13.1" ETV
vector 256 Highway5G.gNodeB4.sctp "Peer Rwnd 64" ETV
vector 257 Highway5G.gNodeB4.sctp "Fast Recovery State 64:10.0.0.3" ETV
vector 258 Highway5G.gNodeB4.sctp "Fast Recovery State 64:192.168.4.2" ETV
vector 259 Highway5G.gNodeB4.sctp "Fast Recovery State 64:192.168.11.1" ETV
vector 260 Highway5G.gNodeB4.sctp "Fast Recovery State 64:192.168.12.1" ETV
vector 261 Highway5G.gNodeB4.sctp "Peer Rwnd 65" ETV
vector 262 Highway5G.gNodeB4.sctp "Fast Recovery State 65:10.0.0.2" ETV
vector 263 Highway5G.gNodeB4.sctp "Fast Recovery State 65:192.168.3.2" ETV
vector 264 Highway5G.gNodeB4.sctp "Fast Recovery State 65:192.168.9.1" ETV
vector 265 Highway5G.gNodeB4.sctp "Fast Recovery State 65:192.168.10.1" ETV
vector 266 Highway5G.gNodeB2.sctp "Slow Start Threshold 102:10.0.0.1" ETV
vector 267 Highway5G.gNodeB2.sctp "Congestion Window 102:10.0.0.1" ETV
vector 268 Highway5G.gNodeB2.sctp "Bandwidth 102:10.0.0.1" ETV
vector 269 Highway5G.gNodeB2.sctp "RTO 102:10.0.0.1" ETV
vector 270 Highway5G.gNodeB2.sctp "Slow Start Threshold 102:192.168.2.2" ETV
vector 271 Highway5G.gNodeB2.sctp "Congestion Window 102:192.168.2.2" ETV
vector 272 Highway5G.gNodeB2.sctp "Bandwidth 102:192.168.2.2" ETV
vector 273 Highway5G.gNodeB2.sctp "RTO 102:192.168.2.2" ETV
vector 274 Highway5G.gNodeB2.sctp "Slow Start Threshold 102:192.168.6.1" ETV
vector 275 Highway5G.gNodeB2.sctp "Congestion Window 102:192.168.6.1" ETV
vector 276 Highway5G.gNodeB2.sctp "Bandwidth 102:192.168.6.1" ETV
vector 277 Highway5G.gNodeB2.sctp "RTO 102:192.168.6.1" ETV
vector 278 Highway5G.gNodeB2.sctp "Slow Start Threshold 102:192.168.7.1" ETV
vector 279 Highway5G.gNodeB2.sctp "Congestion Window 102:192.168.7.1" ETV
vector 280 Highway5G.gNodeB2.sctp "Bandwidth 102:192.168.7.1" ETV
vector 281 Highway5G.gNodeB2.sctp "RTO 102:192.168.7.1" ETV
vector 282 Highway5G.gNodeB2.sctp "Slow Start Threshold 102:192.168.8.1" ETV
vector 283 Highway5G.gNodeB2.sctp "Congestion Window 102:192.168.8.1" ETV
vector 284 Highway5G.gNodeB2.sctp "Bandwidth 102:192.168.8.1" ETV
vector 285 Highway5G.gNodeB2.sctp "RTO 102:192.168.8.1" ETV
vector 286 Highway5G.gNodeB3.sctp "Slow Start Threshold 103:10.0.0.1" ETV
vector 287 Highway5G.gNodeB3.sctp "Congestion Window 103:10.0.0.1" ETV
vector 288 Highway5G.gNodeB3.sctp "Bandwidth 103:10.0.0.1" ETV
vector 289 Highway5G.gNodeB3.sctp "RTO 103:10.0.0.1" ETV
vector 290 Highway5G.gNodeB3.sctp "Slow Start Threshold 103:192.168.2.2" ETV
vector 291 Highway5G.gNodeB3.sctp "Congestion Window 103:192.168.2.2" ETV
vector 292 Highway5G.gNodeB3.sctp "Bandwidth 103:192.168.2.2" ETV
vector 293 Highway5G.gNodeB3.sctp "RTO 103:192.168.2.2" ETV
vector 294 Highway5G.gNodeB3.sctp "Slow Start Threshold 103:192.168.6.1" ETV
vector 295 Highway5G.gNodeB3.sctp "Congestion Window 103:192.168.6.1" ETV
vector 296 Highway5G.gNodeB3.sctp "Bandwidth 103:192.168.6.1" ETV
vector 297 Highway5G.gNodeB3.sctp "RTO 103:192.168.6.1" ETV
vector 298 Highway5G.gNodeB3.sctp "Slow Start Threshold 103:192.168.7.1" ETV
vector 299 Highway5G.gNodeB3.sctp "Congestion Window 103:192.168.7.1" ETV
vector 300 Highway5G.gNodeB3.sctp "Bandwidth 103:192.168.7.1" ETV
vector 301 Highway5G.gNodeB3.sctp "RTO 103:192.168.7.1" ETV
vector 302 Highway5G.gNodeB3.sctp "Slow Start Threshold 103:192.168.8.1" ETV
vector 303 Highway5G.gNodeB3.sctp "Congestion Window 103:192.168.8.1" ETV
vector 304 Highway5G.gNodeB3.sctp "Bandwidth 103:192.168.8.1" ETV
vector 305 Highway5G.gNodeB3.sctp "RTO 103:192.168.8.1" ETV
vector 306 Highway5G.gNodeB1.sctp "Slow Start Threshold 104:10.0.0.2" ETV
vector 307 Highway5G.gNodeB1.sctp "Congestion Window 104:10.0.0.2" ETV
vector 308 Highway5G.gNodeB1.sctp "Bandwidth 104:10.0.0.2" ETV
vector 309 Highway5G.gNodeB1.sctp "RTO 104:10.0.0.2" ETV
vector 310 Highway5G.gNodeB1.sctp "Slow Start Threshold 104:192.168.3.2" ETV
vector 311 Highway5G.gNodeB1.sctp "Congestion Window 104:192.168.3.2" ETV
vector 312 Highway5G.gNodeB1.sctp "Bandwidth 104:192.168.3.2" ETV
vector 313 Highway5G.gNodeB1.sctp "RTO 104:192.168.3.2" ETV
vector 314 Highway5G.gNodeB1.sctp "Slow Start Threshold 104:192.168.6.2" ETV
vector 315 Highway5G.gNodeB1.sctp "Congestion Window 104:192.168.6.2" ETV
vector 316 Highway5G.gNodeB1.sctp "Bandwidth 104:192.168.6.2" ETV
vector 317 Highway5G.gNodeB1.sctp "RTO 104:192.168.6.2" ETV
vector 318 Highway5G.gNodeB1.sctp "Slow Start Threshold 104:192.168.9.1" ETV
vector 319 Highway5G.gNodeB1.sctp "Congestion Window 104:192.168.9.1" ETV
vector 320 Highway5G.gNodeB1.sctp "Bandwidth 104:192.168.9.1" ETV
vector 321 Highway5G.gNodeB1.sctp "RTO 104:192.168.9.1" ETV
vector 322 Highway5G.gNodeB1.sctp "Slow Start Threshold 104:192.168.10.1" ETV
vector 323 Highway5G.gNodeB1.sctp "Congestion Window 104:192.168.10.1" ETV
vector 324 Highway5G.gNodeB1.sctp "Bandwidth 104:192.168.10.1" ETV
vector 325 Highway5G.gNodeB1.sctp "RTO 104:192.168.10.1" ETV
vector 326 Highway5G.gNodeB4.sctp "Slow Start Threshold 105:10.0.0.2" ETV
vector 327 Highway5G.gNodeB4.sctp "Congestion Window 105:10.0.0.2" ETV
vector 328 Highway5G.gNodeB4.sctp "Bandwidth 105:10.0.0.2" ETV
vector 329 Highway5G.gNodeB4.sctp "RTO 105:10.0.0.2" ETV
vector 330 Highway5G.gNodeB4.sctp "Slow Start Threshold 105:192.168.3.2" ETV
vector 331 Highway5G.gNodeB4.sctp "Congestion Window 105:192.168.3.2" ETV
vector 332 Highway5G.gNodeB4.sctp "Bandwidth 105:192.168.3.2" ETV
vector 333 Highway5G.gNodeB4.sctp "RTO 105:192.168.3.2" ETV
vector 334 Highway5G.gNodeB4.sctp "Slow Start Threshold 105:192.168.6.2" ETV
vector 335 Highway5G.gNodeB4.sctp "Congestion Window 105:192.168.6.2" ETV
vector 336 Highway5G.gNodeB4.sctp "Bandwidth 105:192.168.6.2" ETV
vector 337 Highway5G.gNodeB4.sctp "RTO 105:192.168.6.2" ETV
vector 338 Highway5G.gNodeB4.sctp "Slow Start Threshold 105:192.168.9.1" ETV
vector 339 Highway5G.gNodeB4.sctp "Congestion Window 105:192.168.9.1" ETV
vector 340 Highway5G.gNodeB4.sctp "Bandwidth 105:192.168.9.1" ETV
vector 341 Highway5G.gNodeB4.sctp "RTO 105:192.168.9.1" ETV
vector 342 Highway5G.gNodeB4.sctp "Slow Start Threshold 105:192.168.10.1" ETV
vector 343 Highway5G.gNodeB4.sctp "Congestion Window 105:192.168.10.1" ETV
vector 344 Highway5G.gNodeB4.sctp "Bandwidth 105:192.168.10.1" ETV
vector 345 Highway5G.gNodeB4.sctp "RTO 105:192.168.10.1" ETV
vector 346 Highway5G.gNodeB1.sctp "Slow Start Threshold 106:10.0.0.3" ETV
vector 347 Highway5G.gNodeB1.sctp "Congestion Window 106:10.0.0.3" ETV
vector 348 Highway5G.gNodeB1.sctp "Bandwidth 106:10.0.0.3" ETV
vector 349 Highway5G.gNodeB1.sctp "RTO 106:10.0.0.3" ETV
vector 350 Highway5G.gNodeB1.sctp "Slow Start Threshold 106:192.168.4.2" ETV
vector 351 Highway5G.gNodeB1.sctp "Congestion Window 106:192.168.4.2" ETV
vector 352 Highway5G.gNodeB1.sctp "Bandwidth 106:192.168.4.2" ETV
vector 353 Highway5G.gNodeB1.sctp "RTO 106:192.168.4.2" ETV
vector 354 Highway5G.gNodeB1.sctp "Slow Start Threshold 106:192.168.7.2" ETV
vector 355 Highway5G.gNodeB1.sctp "Congestion Window 106:192.168.7.2" ETV
vector 356 Highway5G.gNodeB1.sctp "Bandwidth 106:192.168.7.2" ETV
vector 357 Highway5G.gNodeB1.sctp "RTO 106:192.168.7.2" ETV
vector 358 Highway5G.gNodeB1.sctp "Slow Start Threshold 106:192.168.11.1" ETV
vector 359 Highway5G.gNodeB1.sctp "Congestion Window 106:192.168.11.1" ETV
vector 360 Highway5G.gNodeB1.sctp "Bandwidth 106:192.168.11.1" ETV
vector 361 Highway5G.gNodeB1.sctp "RTO 106:192.168.11.1" ETV
vector 362 Highway5G.gNodeB1.sctp "Slow Start Threshold 106:192.168.12.1" ETV
vector 363 Highway5G.gNodeB1.sctp "Congestion Window 106:192.168.12.1" ETV
vector 364 Highway5G.gNodeB1.sctp "Bandwidth 106:192.168.12.1" ETV
vector 365 Highway5G.gNodeB1.sctp "RTO 106:192.168.12.1" ETV
vector 366 Highway5G.gNodeB4.sctp "Slow Start Threshold 107:10.0.0.3" ETV
vector 367 Highway5G.gNodeB4.sctp "Congestion Window 107:10.0.0.3" ETV
vector 368 Highway5G.gNodeB4.sctp "Bandwidth 107:10.0.0.3" ETV
vector 369 Highway5G.gNodeB4.sctp "RTO 107:10.0.0.3" ETV
vector 370 Highway5G.gNodeB4.sctp "Slow Start Threshold 107:192.168.4.2" ETV
vector 371 Highway5G.gNodeB4.sctp "Congestion Window 107:192.168.4.2" ETV
vector 372 Highway5G.gNodeB4.sctp "Bandwidth 107:192.168.4.2" ETV
vector 373 Highway5G.gNodeB4.sctp "RTO 107:192.168.4.2" ETV
vector 374 Highway5G.gNodeB4.sctp "Slow Start Threshold 107:192.168.7.2" ETV
vector 375 Highway5G.gNodeB4.sctp "Congestion Window 107:192.168.7.2" ETV
vector 376 Highway5G.gNodeB4.sctp "Bandwidth 107:192.168.7.2" ETV
vector 377 Highway5G.gNodeB4.sctp "RTO 107:192.168.7.2" ETV
vector 378 Highway5G.gNodeB4.sctp "Slow Start Threshold 107:192.168.11.1" ETV
vector 379 Highway5G.gNodeB4.sctp "Congestion Window 107:192.168.11.1" ETV
vector 380 Highway5G.gNodeB4.sctp "Bandwidth 107:192.168.11.1" ETV
vector 381 Highway5G.gNodeB4.sctp "RTO 107:192.168.11.1" ETV
vector 382 Highway5G.gNodeB4.sctp "Slow Start Threshold 107:192.168.12.1" ETV
vector 383 Highway5G.gNodeB4.sctp "Congestion Window 107:192.168.12.1" ETV
vector 384 Highway5G.gNodeB4.sctp "Bandwidth 107:192.168.12.1" ETV
vector 385 Highway5G.gNodeB4.sctp "RTO 107:192.168.12.1" ETV
vector 386 Highway5G.gNodeB3.sctp "Slow Start Threshold 108:10.0.0.4" ETV
vector 387 Highway5G.gNodeB3.sctp "Congestion Window 108:10.0.0.4" ETV
vector 388 Highway5G.gNodeB3.sctp "Bandwidth 108:10.0.0.4" ETV
vector 389 Highway5G.gNodeB3.sctp "RTO 108:10.0.0.4" ETV
vector 390 Highway5G.gNodeB3.sctp "Slow Start Threshold 108:192.168.5.2" ETV
vector 391 Highway5G.gNodeB3.sctp "Congestion Window 108:192.168.5.2" ETV
vector 392 Highway5G.gNodeB3.sctp "Bandwidth 108:192.168.5.2" ETV
vector 393 Highway5G.gNodeB3.sctp "RTO 108:192.168.5.2" ETV
vector 394 Highway5G.gNodeB3.sctp "Slow Start Threshold 108:192.168.9.2" ETV
vector 395 Highway5G.gNodeB3.sctp "Congestion Window 108:192.168.9.2" ETV
vector 396 Highway5G.gNodeB3.sctp "Bandwidth 108:192.168.9.2" ETV
vector 397 Highway5G.gNodeB3.sctp "RTO 108:192.168.9.2" ETV
vector 398 Highway5G.gNodeB3.sctp "Slow Start Threshold 108:192.168.11.2" ETV
vector 399 Highway5G.gNodeB3.sctp "Congestion Window 108:192.168.11.2" ETV
vector 400 Highway5G.gNodeB3.sctp "Bandwidth 108:192.168.11.2" ETV
vector 401 Highway5G.gNodeB3.sctp "RTO 108:192.168.11.2" ETV
vector 402 Highway5G.gNodeB3.sctp "Slow Start Threshold 108:192.168.13.1" ETV
vector 403 Highway5G.gNodeB3.sctp "Congestion Window 108:192.168.13.1" ETV
vector 404 Highway5G.gNodeB3.sctp "Bandwidth 108:192.168.13.1" ETV
vector 405 Highway5G.gNodeB3.sctp "RTO 108:192.168.13.1" ETV
vector 406 Highway5G.gNodeB2.sctp "Slow Start Threshold 109:10.0.0.4" ETV
vector 407 Highway5G.gNodeB2.sctp "Congestion Window 109:10.0.0.4" ETV
vector 408 Highway5G.gNodeB2.sctp "Bandwidth 109:10.0.0.4" ETV
vector 409 Highway5G.gNodeB2.sctp "RTO 109:10.0.0.4" ETV
vector 410 Highway5G.gNodeB2.sctp "Slow Start Threshold 109:192.168.5.2" ETV
vector 411 Highway5G.gNodeB2.sctp "Congestion Window 109:192.168.5.2" ETV
vector 412 Highway5G.gNodeB2.sctp "Bandwidth 109:192.168.5.2" ETV
vector 413 Highway5G.gNodeB2.sctp "RTO 109:192.168.5.2" ETV
vector 414 Highway5G.gNodeB2.sctp "Slow Start Threshold 109:192.168.9.2" ETV
vector 415 Highway5G.gNodeB2.sctp "Congestion Window 109:192.168.9.2" ETV
vector 416 Highway5G.gNodeB2.sctp "Bandwidth 109:192.168.9.2" ETV
vector 417 Highway5G.gNodeB2.sctp "RTO 109:192.168.9.2" ETV
vector 418 Highway5G.gNodeB2.sctp "Slow Start Threshold 109:192.168.11.2" ETV
vector 419 Highway5G.gNodeB2.sctp "Congestion Window 109:192.168.11.2" ETV
vector 420 Highway5G.gNodeB2.sctp "Bandwidth 109:192.168.11.2" ETV
vector 421 Highway5G.gNodeB2.sctp "RTO 109:192.168.11.2" ETV
vector 422 Highway5G.gNodeB2.sctp "Slow Start Threshold 109:192.168.13.1" ETV
vector 423 Highway5G.gNodeB2.sctp "Congestion Window 109:192.168.13.1" ETV
vector 424 Highway5G.gNodeB2.sctp "Bandwidth 109:192.168.13.1" ETV
vector 425 Highway5G.gNodeB2.sctp "RTO 109:192.168.13.1" ETV
vector 426 Highway5G.gNodeB1.sctp "Slow Start Threshold 49:10.0.0.2" ETV
vector 427 Highway5G.gNodeB1.sctp "Congestion Window 49:10.0.0.2" ETV
vector 428 Highway5G.gNodeB1.sctp "Bandwidth 49:10.0.0.2" ETV
vector 429 Highway5G.gNodeB1.sctp "RTO 49:10.0.0.2" ETV
vector 430 Highway5G.gNodeB1.sctp "Slow Start Threshold 49:192.168.3.2" ETV
vector 431 Highway5G.gNodeB1.sctp "Congestion Window 49:192.168.3.2" ETV
vector 432 Highway5G.gNodeB1.sctp "Bandwidth 49:192.168.3.2" ETV
vector 433 Highway5G.gNodeB1.sctp "RTO 49:192.168.3.2" ETV
vector 434 Highway5G.gNodeB1.sctp "Slow Start Threshold 49:192.168.6.2" ETV
vector 435 Highway5G.gNodeB1.sctp "Congestion Window 49:192.168.6.2" ETV
vector 436 Highway5G.gNodeB1.sctp "Bandwidth 49:192.168.6.2" ETV
vector 437 Highway5G.gNodeB1.sctp "RTO 49:192.168.6.2" ETV
vector 438 Highway5G.gNodeB1.sctp "Slow Start Threshold 49:192.168.9.1" ETV
vector 439 Highway5G.gNodeB1.sctp "Congestion Window 49:192.168.9.1" ETV
vector 440 Highway5G.gNodeB1.sctp "Bandwidth 49:192.168.9.1" ETV
vector 441 Highway5G.gNodeB1.sctp "RTO 49:192.168.9.1" ETV
vector 442 Highway5G.gNodeB1.sctp "Slow Start Threshold 49:192.168.10.1" ETV
vector 443 Highway5G.gNodeB1.sctp "Congestion Window 49:192.168.10.1" ETV
vector 444 Highway5G.gNodeB1.sctp "Bandwidth 49:192.168.10.1" ETV
vector 445 Highway5G.gNodeB1.sctp "RTO 49:192.168.10.1" ETV
vector 446 Highway5G.gNodeB1.sctp "Slow Start Threshold 50:10.0.0.3" ETV
vector 447 Highway5G.gNodeB1.sctp "Congestion Window 50:10.0.0.3" ETV
vector 448 Highway5G.gNodeB1.sctp "Bandwidth 50:10.0.0.3" ETV
vector 449 Highway5G.gNodeB1.sctp "RTO 50:10.0.0.3" ETV
vector 450 Highway5G.gNodeB1.sctp "Slow Start Threshold 50:192.168.4.2" ETV
vector 451 Highway5G.gNodeB1.sctp "Congestion Window 50:192.168.4.2" ETV
vector 452 Highway5G.gNodeB1.sctp "Bandwidth 50:192.168.4.2" ETV
vector 453 Highway5G.gNodeB1.sctp "RTO 50:192.168.4.2" ETV
vector 454 Highway5G.gNodeB1.sctp "Slow Start Threshold 50:192.168.7.2" ETV
vector 455 Highway5G.gNodeB1.sctp "Congestion Window 50:192.168.7.2" ETV
vector 456 Highway5G.gNodeB1.sctp "Bandwidth 50:192.168.7.2" ETV
vector 457 Highway5G.gNodeB1.sctp "RTO 50:192.168.7.2" ETV
vector 458 Highway5G.gNodeB1.sctp "Slow Start Threshold 50:192.168.11.1" ETV
vector 459 Highway5G.gNodeB1.sctp "Congestion Window 50:192.168.11.1" ETV
vector 460 Highway5G.gNodeB1.sctp "Bandwidth 50:192.168.11.1" ETV
vector 461 Highway5G.gNodeB1.sctp "RTO 50:192.168.11.1" ETV
vector 462 Highway5G.gNodeB1.sctp "Slow Start Threshold 50:192.168.12.1" ETV
vector 463 Highway5G.gNodeB1.sctp "Congestion Window 50:192.168.12.1" ETV
vector 464 Highway5G.gNodeB1.sctp "Bandwidth 50:192.168.12.1" ETV
vector 465 Highway5G.gNodeB1.sctp "RTO 50:192.168.12.1" ETV
vector 466 Highway5G.gNodeB2.sctp "Slow Start Threshold 54:10.0.0.1" ETV
vector 467 Highway5G.gNodeB2.sctp "Congestion Window 54:10.0.0.1" ETV
vector 468 Highway5G.gNodeB2.sctp "Bandwidth 54:10.0.0.1" ETV
vector 469 Highway5G.gNodeB2.sctp "RTO 54:10.0.0.1" ETV
vector 470 Highway5G.gNodeB2.sctp "Slow Start Threshold 54:192.168.2.2" ETV
vector 471 Highway5G.gNodeB2.sctp "Congestion Window 54:192.168.2.2" ETV
vector 472 Highway5G.gNodeB2.sctp "Bandwidth 54:192.168.2.2" ETV
vector 473 Highway5G.gNodeB2.sctp "RTO 54:192.168.2.2" ETV
vector 474 Highway5G.gNodeB2.sctp "Slow Start Threshold 54:192.168.6.1" ETV
vector 475 Highway5G.gNodeB2.sctp "Congestion Window 54:192.168.6.1" ETV
vector 476 Highway5G.gNodeB2.sctp "Bandwidth 54:192.168.6.1" ETV
vector 477 Highway5G.gNodeB2.sctp "RTO 54:192.168.6.1" ETV
vector 478 Highway5G.gNodeB2.sctp "Slow Start Threshold 54:192.168.7.1" ETV
vector 479 Highway5G.gNodeB2.sctp "Congestion Window 54:192.168.7.1" ETV
vector 480 Highway5G.gNodeB2.sctp "Bandwidth 54:192.168.7.1" ETV
vector 481 Highway5G.gNodeB2.sctp "RTO 54:192.168.7.1" ETV
vector 482 Highway5G.gNodeB2.sctp "Slow Start Threshold 54:192.168.8.1" ETV
vector 483 Highway5G.gNodeB2.sctp "Congestion Window 54:192.168.8.1" ETV
vector 484 Highway5G.gNodeB2.sctp "Bandwidth 54:192.168.8.1" ETV
vector 485 Highway5G.gNodeB2.sctp "RTO 54:192.168.8.1" ETV
vector 486 Highway5G.gNodeB2.sctp "Slow Start Threshold 55:10.0.0.4" ETV
vector 487 Highway5G.gNodeB2.sctp "Congestion Window 55:10.0.0.4" ETV
vector 488 Highway5G.gNodeB2.sctp "Bandwidth 55:10.0.0.4" ETV
vector 489 Highway5G.gNodeB2.sctp "RTO 55:10.0.0.4" ETV
vector 490 Highway5G.gNodeB2.sctp "Slow Start Threshold 55:192.168.5.2" ETV
vector 491 Highway5G.gNodeB2.sctp "Congestion Window 55:192.168.5.2" ETV
vector 492 Highway5G.gNodeB2.sctp "Bandwidth 55:192.168.5.2" ETV
vector 493 Highway5G.gNodeB2.sctp "RTO 55:192.168.5.2" ETV
vector 494 Highway5G.gNodeB2.sctp "Slow Start Threshold 55:192.168.9.2" ETV
vector 495 Highway5G.gNodeB2.sctp "Congestion Window 55:192.168.9.2" ETV
vector 496 Highway5G.gNodeB2.sctp "Bandwidth 55:192.168.9.2" ETV
vector 497 Highway5G.gNodeB2.sctp "RTO 55:192.168.9.2" ETV
vector 498 Highway5G.gNodeB2.sctp "Slow Start Threshold 55:192.168.11.2" ETV
vector 499 Highway5G.gNodeB2.sctp "Congestion Window 55:192.168.11.2" ETV
vector 500 Highway5G.gNodeB2.sctp "Bandwidth 55:192.168.11.2" ETV
vector 501 Highway5G.gNodeB2.sctp "RTO 55:192.168.11.2" ETV
vector 502 Highway5G.gNodeB2.sctp "Slow Start Threshold 55:192.168.13.1" ETV
vector 503 Highway5G.gNodeB2.sctp "Congestion Window 55:192.168.13.1" ETV
vector 504 Highway5G.gNodeB2.sctp "Bandwidth 55:192.168.13.1" ETV
vector 505 Highway5G.gNodeB2.sctp "RTO 55:192.168.13.1" ETV
vector 506 Highway5G.gNodeB3.sctp "Slow Start Threshold 59:10.0.0.1" ETV
vector 507 Highway5G.gNodeB3.sctp "Congestion Window 59:10.0.0.1" ETV
vector 508 Highway5G.gNodeB3.sctp "Bandwidth 59:10.0.0.1" ETV
vector 509 Highway5G.gNodeB3.sctp "RTO 59:10.0.0.1" ETV
vector 510 Highway5G.gNodeB3.sctp "Slow Start Threshold 59:192.168.2.2" ETV
vector 511 Highway5G.gNodeB3.sctp "Congestion Window 59:192.168.2.2" ETV
vector 512 Highway5G.gNodeB3.sctp "Bandwidth 59:192.168.2.2" ETV
vector 513 Highway5G.gNodeB3.sctp "RTO 59:192.168.2.2" ETV
vector 514 Highway5G.gNodeB3.sctp "Slow Start Threshold 59:192.168.6.1" ETV
vector 515 Highway5G.gNodeB3.sctp "Congestion Window 59:192.168.6.1" ETV
vector 516 Highway5G.gNodeB3.sctp "Bandwidth 59:192.168.6.1" ETV
vector 517 Highway5G.gNodeB3.sctp "RTO 59:192.168.6.1" ETV
vector 518 Highway5G.gNodeB3.sctp "Slow Start Threshold 59:192.168.7.1" ETV
vector 519 Highway5G.gNodeB3.sctp "Congestion Window 59:192.168.7.1" ETV
vector 520 Highway5G.gNodeB3.sctp "Bandwidth 59:192.168.7.1" ETV
vector 521 Highway5G.gNodeB3.sctp "RTO 59:192.168.7.1" ETV
vector 522 Highway5G.gNodeB3.sctp "Slow Start Threshold 59:192.168.8.1" ETV
vector 523 Highway5G.gNodeB3.sctp "Congestion Window 59:192.168.8.1" ETV
vector 524 Highway5G.gNodeB3.sctp "Bandwidth 59:192.168.8.1" ETV
vector 525 Highway5G.gNodeB3.sctp "RTO 59:192.168.8.1" ETV
vector 526 Highway5G.gNodeB3.sctp "Slow Start Threshold 60:10.0.0.4" ETV
vector 527 Highway5G.gNodeB3.sctp "Congestion Window 60:10.0.0.4" ETV
vector 528 Highway5G.gNodeB3.sctp "Bandwidth 60:10.0.0.4" ETV
vector 529 Highway5G.gNodeB3.sctp "RTO 60:10.0.0.4" ETV
vector 530 Highway5G.gNodeB3.sctp "Slow Start Threshold 60:192.168.5.2" ETV
vector 531 Highway5G.gNodeB3.sctp "Congestion Window 60:192.168.5.2" ETV
vector 532 Highway5G.gNodeB3.sctp "Bandwidth 60:192.168.5.2" ETV
vector 533 Highway5G.gNodeB3.sctp "RTO 60:192.168.5.2" ETV
vector 534 Highway5G.gNodeB3.sctp "Slow Start Threshold 60:192.168.9.2" ETV
vector 535 Highway5G.gNodeB3.sctp "Congestion Window 60:192.168.9.2" ETV
vector 536 Highway5G.gNodeB3.sctp "Bandwidth 60:192.168.9.2" ETV
vector 537 Highway5G.gNodeB3.sctp "RTO 60:192.168.9.2" ETV
vector 538 Highway5G.gNodeB3.sctp "Slow Start Threshold 60:192.168.11.2" ETV
vector 539 Highway5G.gNodeB3.sctp "Congestion Window 60:192.168.11.2" ETV
vector 540 Highway5G.gNodeB3.sctp "Bandwidth 60:192.168.11.2" ETV
vector 541 Highway5G.gNodeB3.sctp "RTO 60:192.168.11.2" ETV
vector 542 Highway5G.gNodeB3.sctp "Slow Start Threshold 60:192.168.13.1" ETV
vector 543 Highway5G.gNodeB3.sctp "Congestion Window 60:192.168.13.1" ETV
vector 544 Highway5G.gNodeB3.sctp "Bandwidth 60:192.168.13.1" ETV
vector 545 Highway5G.gNodeB3.sctp "RTO 60:192.168.13.1" ETV
vector 546 Highway5G.gNodeB4.sctp "Slow Start Threshold 64:10.0.0.3" ETV
vector 547 Highway5G.gNodeB4.sctp "Congestion Window 64:10.0.0.3" ETV
vector 548 Highway5G.gNodeB4.sctp "Bandwidth 64:10.0.0.3" ETV
vector 549 Highway5G.gNodeB4.sctp "RTO 64:10.0.0.3" ETV
vector 550 Highway5G.gNodeB4.sctp "Slow Start Threshold 64:192.168.4.2" ETV
vector 551 Highway5G.gNodeB4.sctp "Congestion Window 64:192.168.4.2" ETV
vector 552 Highway5G.gNodeB4.sctp "Bandwidth 64:192.168.4.2" ETV
vector 553 Highway5G.gNodeB4.sctp "RTO 64:192.168.4.2" ETV
vector 554 Highway5G.gNodeB4.sctp "Slow Start Threshold 64:192.168.7.2" ETV
vector 555 Highway5G.gNodeB4.sctp "Congestion Window 64:192.168.7.2" ETV
vector 556 Highway5G.gNodeB4.sctp "Bandwidth 64:192.168.7.2" ETV
vector 557 Highway5G.gNodeB4.sctp "RTO 64:192.168.7.2" ETV
vector 558 Highway5G.gNodeB4.sctp "Slow Start Threshold 64:192.168.11.1" ETV
vector 559 Highway5G.gNodeB4.sctp "Congestion Window 64:192.168.11.1" ETV
vector 560 Highway5G.gNodeB4.sctp "Bandwidth 64:192.168.11.1" ETV
vector 561 Highway5G.gNodeB4.sctp "RTO 64:192.168.11.1" ETV
vector 562 Highway5G.gNodeB4.sctp "Slow Start Threshold 64:192.168.12.1" ETV
vector 563 Highway5G.gNodeB4.sctp "Congestion Window 64:192.168.12.1" ETV
vector 564 Highway5G.gNodeB4.sctp "Bandwidth 64:192.168.12.1" ETV
vector 565 Highway5G.gNodeB4.sctp "RTO 64:192.168.12.1" ETV
vector 566 Highway5G.gNodeB4.sctp "Slow Start Threshold 65:10.0.0.2" ETV
vector 567 Highway5G.gNodeB4.sctp "Congestion Window 65:10.0.0.2" ETV
vector 568 Highway5G.gNodeB4.sctp "Bandwidth 65:10.0.0.2" ETV
vector 569 Highway5G.gNodeB4.sctp "RTO 65:10.0.0.2" ETV
vector 570 Highway5G.gNodeB4.sctp "Slow Start Threshold 65:192.168.3.2" ETV
vector 571 Highway5G.gNodeB4.sctp "Congestion Window 65:192.168.3.2" ETV
vector 572 Highway5G.gNodeB4.sctp "Bandwidth 65:192.168.3.2" ETV
vector 573 Highway5G.gNodeB4.sctp "RTO 65:192.168.3.2" ETV
vector 574 Highway5G.gNodeB4.sctp "Slow Start Threshold 65:192.168.6.2" ETV
vector 575 Highway5G.gNodeB4.sctp "Congestion Window 65:192.168.6.2" ETV
vector 576 Highway5G.gNodeB4.sctp "Bandwidth 65:192.168.6.2" ETV
vector 577 Highway5G.gNodeB4.sctp "RTO 65:192.168.6.2" ETV
vector 578 Highway5G.gNodeB4.sctp "Slow Start Threshold 65:192.168.9.1" ETV
vector 579 Highway5G.gNodeB4.sctp "Congestion Window 65:192.168.9.1" ETV
vector 580 Highway5G.gNodeB4.sctp "Bandwidth 65:192.168.9.1" ETV
vector 581 Highway5G.gNodeB4.sctp "RTO 65:192.168.9.1" ETV
vector 582 Highway5G.gNodeB4.sctp "Slow Start Threshold 65:192.168.10.1" ETV
vector 583 Highway5G.gNodeB4.sctp "Congestion Window 65:192.168.10.1" ETV
vector 584 Highway5G.gNodeB4.sctp "Bandwidth 65:192.168.10.1" ETV
vector 585 Highway5G.gNodeB4.sctp "RTO 65:192.168.10.1" ETV
vector 586 Highway5G.gNodeB1.cellularNic.mac avgServedBlocksUl:vector ETV
attr recordingmode vector
attr source avgServedBlocksUl
attr title "Avg Served Blocks Ul"
attr unit blocks
vector 587 Highway5G.gNodeB1.cellularNic.mac avgServedBlocksDl:vector ETV
attr recordingmode vector
attr source avgServedBlocksDl
attr title "Avg Served Blocks Dl"
attr unit blocks
vector 588 Highway5G.gNodeB2.cellularNic.mac avgServedBlocksUl:vector ETV
attr recordingmode vector
attr source avgServedBlocksUl
attr title "Avg Served Blocks Ul"
attr unit blocks
vector 589 Highway5G.gNodeB2.cellularNic.mac avgServedBlocksDl:vector ETV
attr recordingmode vector
attr source avgServedBlocksDl
attr title "Avg Served Blocks Dl"
attr unit blocks
vector 590 Highway5G.gNodeB3.cellularNic.mac avgServedBlocksUl:vector ETV
attr recordingmode vector
attr source avgServedBlocksUl
attr title "Avg Served Blocks Ul"
attr unit blocks
vector 591 Highway5G.gNodeB3.cellularNic.mac avgServedBlocksDl:vector ETV
attr recordingmode vector
attr source avgServedBlocksDl
attr title "Avg Served Blocks Dl"
attr unit blocks
vector 592 Highway5G.gNodeB4.cellularNic.mac avgServedBlocksUl:vector ETV
attr recordingmode vector
attr source avgServedBlocksUl
attr title "Avg Served Blocks Ul"
attr unit blocks
vector 593 Highway5G.gNodeB4.cellularNic.mac avgServedBlocksDl:vector ETV
attr recordingmode vector
attr source avgServedBlocksDl
attr title "Avg Served Blocks Dl"
attr unit blocks
vector 594 Highway5G.car[0].udp passedUpPk:vector(count) ETV
attr interpolationmode none
attr recordingmode vector(count)
attr source packetSentToUpper
attr title "packets passed up, count"
vector 595 Highway5G.car[0].udp droppedPkWrongPort:vector(count) ETV
attr interpolationmode none
attr recordingmode vector(count)
attr source packetDropReasonIsNoPortFound(packetDropped)
attr title "packets dropped (wrong port), count"
vector 596 Highway5G.car[0].udp droppedPkBadChecksum:vector(count) ETV
attr interpolationmode none
attr recordingmode vector(count)
attr source packetDropReasonIsIncorrectlyReceived(packetDropped)
attr title "packets dropped (checksum error), count"
vector 597 Highway5G.car[0].cellularNic.phy servingCell:vector ETV
attr recordingmode vector
attr source servingCell
attr title "ID of the serving eNodeB for the UE"
attr unit ""
[...]
136	65297133 404 3481362 3900665 103.00001 117.2000101068 14 384 512 6400 2981888
137	65297537 390 3481362 3900665 103.00001 117.2000101068 14 48 64 800 46592
138	65297927 390 3481362 3900665 103.00001 117.2000101068 14 55 71 898 58478
156	65298317 420 3482947 3902000 103.0500101068 117.2500102008 14 55 71 898 58478
157	65298737 420 3482947 3902000 103.0500101068 117.2500102008 14 48 64 800 46592
162	65299157 420 3481364 3900667 103.0000101068 117.2000102008 14 55 71 898 58478
163	65299577 420 3481364 3900667 103.0000101068 117.2000102008 14 48 64 800 46592
586	65299997 418079 3412980 3983858 100.908 120 19093 0 22 4000 46812
587	65718076 417905 3412980 3983858 100.908 120 19093 0 0 0 0
588	66135981 417905 3412981 3983859 100.908 120 19093 0 0 0 0
589	66553886 417905 3412981 3983859 100.908 120 19093 0 0 0 0
590	66971791 422693 3412982 3983860 100.908 120 19093 0 25 79027 1141081
591	67394484 417905 3412982 3983860 100.908 120 19093 0 0 0 0
592	67812389 417905 3412983 3983863 100.908 120 19093 0 0 0 0
593	68230294 417905 3412983 3983863 100.908 120 19093 0 0 0 0
609	68648199 30895 3483008 3896614 103.052 117.046 1394 1 154 23145 1449493
610	68679094 27281 3483008 3883869 103.052 116.613 1246 1 1 1246 1246
618	68706375 276 3878236 3883869 116.517 116.613 12 15 66 438 21662
619	68706651 276 3878240 3883872 116.517 116.613 12 15 66 438 21662
625	68706927 138 3878465 3883872 116.523 116.613 6 69 69 414 28566
627	68707065 138 3878466 3883873 116.523 116.613 6 69 69 414 28566
628	68707203 138 3878466 3883873 116.523 116.613 6 68 68 408 27744
629	68707341 138 3878470 3883877 116.523 116.613 6 84 84 504 42336
630	68707479 144 3878472 3883879 116.523 116.613 6 832 832 4992 4153344
631	68707623 7148 3878472 3983918 83.2 120 369 0 41600 58240 1869004800
632	68714771 132 3878472 3883879 116.523 116.613 6 0 0 0 0
633	68714903 144 3878472 3883879 116.523 116.613 6 832 832 4992 4153344
634	68715047 7148 3878472 3983918 83.2 120 369 0 41600 58240 1869004800
635	68722195 144 3878472 3883879 116.523 116.613 6 104 104 624 64896
636	68722339 144 3878472 3883879 116.523 116.613 6 111 111 666 73926
637	68722483 186 3878520 3883902 116.5230001388 116.6130001388 6 111 111 666 73926
638	68722669 186 3878520 3883902 116.5230001388 116.6130001388 6 104 104 624 64896
639	68722855 42053 3413393 3983810 100.9230001388 119.9980001388 1403 84 84 117852 9899568
640	68764908 43456 3413395 3983812 100.9230001388 119.9980001388 1403 544 544 763232 415198208
641	68808364 6185 3413946 3983918 100.9390001388 120 192 0 508740.74074074 7621181.6298604 782949394149.47
642	68814549 40684 3413395 3983812 100.9230001388 119.9980001388 1403 0 6e-08 1.872e-07 9.1584e-15
643	68855233 43456 3413395 3983812 100.9230001388 119.9980001388 1403 544 544 763232 415198208
644	68898689 6185 3413946 3983918 100.9390001388 120 192 0 508740.74074074 7621181.6298604 782949394149.47
645	68904874 42053 3413395 3983812 100.9230001388 119.9980001388 1403 68 68 95404 6487472
646	68946927 42053 3413395 3983812 100.9230001388 119.9980001388 1403 75 75 105225 7891875
647	68988980 42053 3413397 3983814 100.9230002488 119.9980002488 1403 75 75 105225 7891875
648	69031033 42053 3413397 3983814 100.9230002488 119.9980002488 1403 68 68 95404 6487472
649	69073086 43456 3413399 3983816 100.9230002488 119.9980002488 1403 544 544 763232 415198208
650	69116542 6185 3413950 3983918 100.9390002488 120 192 0 508740.74074074 7621181.7363759 782949405082.42
651	69122727 40650 3413399 3983816 100.9230002488 119.9980002488 1403 0 0 0 0
652	69163377 43456 3413399 3983816 100.9230002488 119.9980002488 1403 544 544 763232 415198208
653	69206833 6185 3413950 3983918 100.9390002488 120 192 0 508740.74074074 7621181.7363759 782949405082.42
654	69213018 42053 3413399 3983816 100.9230002488 119.9980002488 1403 68 68 95404 6487472
655	69255071 42053 3413399 3983816 100.9230002488 119.9980002488 1403 75 75 105225 7891875
656	69297124 42053 3413401 3983818 100.9230003588 119.9980003588 1403 75 75 105225 7891875
657	69339177 42053 3413401 3983818 100.9230003588 119.9980003588 1403 68 68 95404 6487472
658	69381230 42053 3413403 3983820 100.9230003588 119.9980003588 1403 48 48 67344 3232512
667	69423283 2548 3415539 3983911 101 120 80 1054.7318837244 2374.928365038 135510.49285798 238365796.39909
668	69425831 48 3535774 3563544 105.05001 106.05001 2 1 3 4 10
669	69425879 37794 3413405 3983428 100.92345186429 119.985730486729 845 1199.7211526496 1290.4867884863 1053411.6577603 1313915993.3861
670	69463673 26921 3413406 3983429 100.92345186429 119.985730486729 845 48 48 40560 1946880
671	69490594 26893 3413409 3983432 100.92345186429 119.985730486729 845 68 68 57460 3907280
672	69517487 26893 3413409 3983432 100.92345186429 119.985730486729 845 69 69 58305 4023045
673	69544380 26893 3413410 3983433 100.92345186429 119.985730486729 845 69 69 58305 4023045
674	69571273 60686 3412979 3983739 100.908 119.996 2345 5 173 120857 8545965
675	69631959 114147 3412984 3983744 100.908 119.996 5075 1 175 190883 14011977
676	69746106 116723 3412990 3983868 100.908 120 3183 -21.056403361243 3.939179811538 -25494.779198654 330019.16152848
677	69862829 113972 3412990 3983868 100.908 120 3183 -2.0691774785411 22.642902683445 28741.907256991 412701.9415082
678	69976801 579469 3412991 3983873 100.908 120 26138 1 532 520468 40514386
679	70556270 567084 3413022 3983860 100.909 120 25940 1 1 25940 25940
680	71123354 206363 3412995 3983724 100.908 119.995 9414 1 1 9414 9414
681	71329717 32788 3412975 3983735 100.908 119.996 1500 1 1 1500 1500
682	71362505 121021 3412977 3983737 100.908 119.996 5516 0 1 3655 3655
683	71483526 33793 3412977 3983737 100.908 119.996 1500 5 173 60862 4286320
684	71517319 81633 3412985 3983745 100.908 119.996 3732 1 4 8201 20295
685	71598952 61298 3413024 3983771 100.909 119.997 1670 -14.864832390057 4.1655473148699 -11323.647245042 127499.27870141
686	71660250 24422 3413426 3983686 100.924 119.994 965 0.004 1.019 9.6609999999998 2.1347090000001
687	71684672 61879 3413374 3983785 100.923 119.998 2762 3 530 105252 8166734
688	71746551 61879 3413377 3983788 100.923 119.998 2762 3 530 105252 8166734
689	71808430 20988 3413430 3983690 100.924 119.994 965 0 0 0 0
690	71829418 24422 3413430 3983690 100.924 119.994 965 0.004 1.019 9.6609999999998 2.1347090000001
691	71853840 12941 3470091 3983455 102.658 119.986 361 0.64821599684347 199.54828063274 37517.34229364 5032386.5938581
692	71866781 88233 3470091 3983455 102.658 119.986 4016 0 1 3655 3655
693	71955014 12613 3470091 3983455 102.658 119.986 361 0.014399970087 1.051399970087 50.098695640011 34.207518129278
694	71967627 31872 3413377 3983788 100.923 119.998 1397 69 69 96393 6651117
695	71999499 30925 3413430 3983690 100.924 119.994 1418 0 1 446 446
696	72030424 31872 3413378 3983789 100.923 119.998 1397 69 69 96393 6651117
697	72062296 31872 3413378 3983789 100.923 119.998 1397 68 68 94996 6459728
698	72094168 31872 3413382 3983793 100.923 119.998 1397 84 84 117348 9857232
699	72126040 33269 3413384 3983795 100.923 119.998 1397 832 832 1162304 967036928
700	72159309 4657 3413931 3983918 100.94 120 192 0 798720 11670186.666667 1861605694577.8
701	72163966 34580 3413384 3983795 100.923 119.998 1397 0 2.664e-06 0.0001403928 1.608235488e-10
702	72198546 35220 3413384 3983795 100.923 119.998 1397 832 832 1162304 967036928
703	72233766 6185 3413931 3983918 100.9400000888 120 192 0 798720 11670186.810326 1860913498466.8
704	72239951 35220 3413384 3983795 100.923 119.998 1397 104 104 145288 15109952
705	72275171 35220 3413384 3983795 100.923 119.998 1397 111 111 155067 17212437
706	72310391 43270 3413391 3983808 100.9230001388 119.9980001388 1397 111 111 155067 17212437
707	72353661 43270 3413391 3983808 100.9230001388 119.9980001388 1397 104 104 145288 15109952
708	72396931 15476 3470124 3983485 102.6580003588 119.9860003588 361 731.66098022923 772.18429787881 272830.28445269 206230311.74571
709	72412407 32877 3413114 3983722 100.913 119.995 1498 0 1 1060 1060
710	72445284 81774 3412995 3983722 100.908 119.995 3729 0 1 2764 2764
711	72527058 21194 3413468 3983722 100.925 119.995 965 1 4 1600 3098
717	72548252 2555 3415541 3983913 101 120 80 1187.5718466803 2492.9956256028 145565.94319973 273534043.99804
718	72550807 96 3482931 3896745 103.05001 117.05001 4 1 3 8 20
719	72550903 25077 3418953 3948433 101.122504789789 118.818038895141 566 1167.9162948238 1218.6862036411 676540.42748569 808773064.56658
720	72575980 17772 3418954 3948434 101.122504789789 118.818038895141 566 48 48 27168 1304064
721	72593752 17748 3418957 3948437 101.122504789789 118.818038895141 566 68 68 38488 2617184
722	72611500 17748 3418957 3948437 101.122504789789 118.818038895141 566 69 69 39054 2694726
723	72629248 17748 3418958 3948438 101.122504789789 118.818038895141 566 69 69 39054 2694726
724	72646996 40513 3418960 3948759 101.122504789789 118.829 1565 3 530 79540 5815090
725	72687509 101238 3418969 3948778 101.123 118.829 4487 1 532 138267 9329631
726	72788747 116034 3413090 3983801 100.912 119.998 3182 -25.036870202921 5.7585777983306 -29441.022628308 439504.99126671
727	72904781 114449 3413090 3983801 100.912 119.998 3182 -9.3073830518332 17.003003206724 22158.668559372 286498.16757129
728	73019230 185224 3419081 3948986 101.125 118.834 8466 1 1 8466 8466
729	73204454 21889 3430227 3948755 101.517 118.829 999 1 1 999 999
730	73226343 253039 3430229 3948927 101.517 118.833 11506 0 1 10389 10389
731	73479382 22765 3430229 3948757 101.517 118.829 999 3 530 39354 2961884
732	73502147 68789 3430243 3948779 101.517 118.829 3143 1 4 5028 9872
733	73570936 21567 3430275 3948839 101.518 118.83 589 -14.150914387776 10.393661073517 -2943.1274686613 43415.133335214
734	73592503 8806 3430579 3948924 101.527 118.833 344 0.004 1.014 3.472 1.052056
735	73601309 7541 3430585 3948927 101.527 118.833 344 0 0 0 0
736	73608850 8806 3430585 3948927 101.527 118.833 344 0.004 1.014 3.472 1.052056
737	73617656 4237 3652032 3948927 108.732 118.833 118 0.58219004708146 52.09490419328 2507.7304312863 82559.774839811
738	73621893 231150 3652032 3948927 108.732 118.833 10507 0 1 10389 10389
739	73853043 4112 3652032 3948927 108.732 118.833 118 0.014591645787 1.00866002455 17.92506926062 10.133050830538
740	73857155 25866 3430137 3948927 101.514 118.833 1177 0 1 840 840
741	73883021 5048 3652133 3948959 108.7320003588 118.8330003588 118 583.31733187916 609.01205327005 70075.094380107 41619521.03864
742	73888069 21908 3430409 3948986 101.522 118.834 999 0 1 799 799
743	73909977 68815 3430409 3948986 101.522 118.834 3141 0 1 2797 2797
744	73978792 7548 3430639 3948986 101.528 118.834 344 1 4 526 978
745	73986340 16592 3509922 3983918 103.9850003588 120 412 0.014400328887 1.051400328887 52.228817745221 34.384266524298
746	74002932 17472 3430639 3820775 101.528 114.493 798 0 1 686 686
747	74020404 5716 3652133 3983918 108.7320003588 120 143 0.014592004587 1.928844256344 22.31826302922 14.16835262942
748	74026120 3472 3983918 3983918 120 120 112 0.008446812637 0.008446812637 0.946043015344 0.0079910480971533
786	74029592 4453 3983918 3983918 97.5 120 226 0 41600 41600 1730560000
789	74034045 4453 3983918 3983918 97.5 120 226 0 41600 41600 1730560000
802	74038498 2553 3415543 3983915 101 120 80 1044.6341888028 2278.445697656 131204.94502218 223456676.02718
803	74041051 48 3535775 3563545 105.05001 106.05001 2 1 3 4 10
804	74041099 33994 3413533 3983543 100.927223993473 119.988309288125 757 1092.6685153565 1171.1140929786 851296.51087015 957733814.05341
805	74075093 24256 3412959 3983544 100.907223993473 119.988309288125 758 48 48 36384 1746432
806	74099349 24256 3412962 3983547 100.907223993473 119.988309288125 758 68 68 51544 3504992
807	74123605 24256 3412962 3983547 100.907223993473 119.988309288125 758 69 69 52302 3608838
808	74147861 24256 3412963 3983548 100.907223993473 119.988309288125 758 69 69 52302 3608838
809	74172117 50506 3412965 3983656 100.907223993473 119.993 1918 3 338 108602 9047866
810	74222623 93077 3412970 3983836 100.908 119.999 4148 1 340 165025 16190107
811	74315700 116891 3412992 3983870 100.908 120 3183 -23.448024957735 -0.89692292542854 -32034.574575826 437500.52583418
812	74432591 113539 3412992 3983870 100.908 120 3183 1.9513121111819 19.45611731904 26900.313578714 273977.44646166
813	74546130 166068 3413049 3983843 100.91 119.999 7605 1 1 7605 7605
814	74712198 25456 3429947 3983652 101.507 119.993 1160 1 1 1160 1160
815	74737654 103501 3429949 3983788 101.507 119.998 4843 0 1 3248 3248
816	74841155 26250 3429949 3983654 101.507 119.993 1160 3 338 54784 5226788
817	74867405 57594 3429962 3983837 101.507 119.999 2629 1 4 5589 12859
818	74924999 56506 3430004 3983872 101.508 120 1534 -14.972449199058 3.9816782790881 -8159.6291475802 65970.098901561
819	74981505 21957 3430236 3983785 101.517 119.998 862 0.004 0.026 6.9309999999999 0.071491000000001
820	75003462 18872 3430240 3983788 101.517 119.998 862 0 0 0 0
821	75022334 21957 3430240 3983788 101.517 119.998 862 0.004 0.026 6.9309999999999 0.071491000000001
822	75044291 15582 3431189 3983788 101.542 119.998 435 0.64685478578794 1255.4015608781 213678.67370677 235434359.35066
823	75059873 78045 3431189 3983788 101.542 119.998 3683 0 1 3248 3248
824	75137918 15190 3431189 3983788 101.542 119.998 435 0.015354933442 2.042358042278 132.01285799302 153.27920714189
825	75153108 25648 3430703 3983788 101.53 119.998 1173 0 1 307 307
826	75178756 18634 3431228 3983821 101.5420003588 119.9980003588 435 1003.0637692122 1082.2344355436 452870.26604297 471699925.91073
827	75197390 25338 3430111 3983804 101.512 119.998 1160 0 1 765 765
828	75222728 57419 3430111 3983843 101.512 119.999 2628 0 1 1766 1766
829	75280147 18892 3430272 3983843 101.518 119.999 862 1 4 1439 2829
830	75299039 19633 3432721 3983918 101.5720003588 120 474 0.014358401078 2.042358401078 135.36707182027 155.01307074658
831	75318672 19034 3983918 3983918 120 120 614 0.008773072609 0.014773072609 5.392669872326 0.047398951649232
832	75337706 16716 3430272 3983843 101.518 119.999 764 0 1 399 399
865	75354422 23240 3413282 3983508 100.919 119.987 1060 0 1 635 635
900	75377662 2325 3983918 3983918 120 120 75 0.014725370091 0.014725370091 1.104402756825 0.016262739323769
902	75379987 4495 3983918 3983918 120 120 145 0.008547465639 0.008547525639 1.239382577655 0.010593580508933
915	75384482 6972 3983918 3983918 84.1 120 360 0 5120 5120 26214400
916	75391454 6972 3983918 3983918 84.1 120 360 0 5120 5120 26214400
917	75398426 5688 3481362 3983918 91.1 120 290 0 14080 69120 586547200
918	75404114 5688 3481362 3983918 91.1 120 290 0 14080 69120 586547200
944	75409802 6934 3983918 3983918 84.3 120 358 0 3840 3840 14745600
945	75416736 6934 3983918 3983918 84.3 120 358 0 3840 3840 14745600
947	75423670 5650 3482944 3983918 91.3 120 288 0 14080 67840 575078400
948	75429320 5650 3482944 3983918 91.3 120 288 0 14080 67840 575078400
950	75434970 240 3481369 3896758 103.0000101068 117.0500101068 8 15 15 120 1800
1011	75435210 7332 3983918 3983918 84.1 120 360 0 5120 5120 26214400
1012	75442542 7332 3983918 3983918 84.1 120 360 0 5120 5120 26214400
1013	75449874 5946 3983918 3983918 91.1 120 290 0 5120 5120 26214400
1014	75455820 5946 3983918 3983918 91.1 120 290 0 5120 5120 26214400
1040	75461766 7292 3983918 3983918 84.3 120 358 0 3840 3840 14745600
1041	75469058 7292 3983918 3983918 84.3 120 358 0 3840 3840 14745600
1043	75476350 5906 3983918 3983918 91.3 120 288 0 3840 3840 14745600
1044	75482256 5906 3983918 3983918 91.3 120 288 0 3840 3840 14745600
1104	75488162 6223 3983918 3983918 89.7 120 304 0 33280 33280 1107558400
1107	75494385 6223 3983918 3983918 89.7 120 304 0 33280 33280 1107558400
1131	75500608 248 3482952 3895457 103.0500101068 117.0000101068 8 15 15 120 1800
1160	75500856 2636 3415545 3983917 101 120 80 16.283322794587 1133.2745566501 45119.942226149 32993338.668627
1162	75503492 22320 3413147 3978162 100.914368181996 119.794020921457 489 735.31008822804 782.67679203684 367475.51076551 276226240.09708
1163	75525812 16001 3413148 3978163 100.914368181996 119.794020921457 489 48 48 23472 1126656
1164	75541813 16001 3413151 3978166 100.914368181996 119.794020921457 489 68 68 33252 2261136
1165	75557814 16001 3413151 3978166 100.914368181996 119.794020921457 489 69 69 33741 2328129
1166	75573815 16001 3413152 3978167 100.914368181996 119.794020921457 489 69 69 33741 2328129
1167	75589816 30337 3413154 3978454 100.914368181996 119.805 1092 9 71 69666 4736514
1168	75620153 25630 3413157 3978465 100.915 119.805 1093 1 73 36715 2419483
1169	75645783 116519 3413044 3983750 100.91 119.996 3182 6.82809441365 79.69192208039 112804.2528382 5104474.3443874
1170	75762302 116686 3413044 3983750 100.91 119.996 3182 24.542692455075 87.601485196241 174322.1000876 10377752.067879
1171	75878988 38908 3413226 3978662 100.917 119.81 1697 1 1 1697 1697
1172	75917896 13783 3413255 3978450 100.919 119.805 603 1 1 603 603
1173	75931679 24830 3413257 3978604 100.919 119.809 1092 0 0 0 0
1174	75956509 14336 3413257 3978452 100.919 119.805 603 9 71 34947 2271465
1175	75970845 14176 3413273 3978466 100.919 119.805 604 5 15 6389 75433
1176	75985021 22227 3413313 3978512 100.92 119.806 604 5.4328555193039 67.619413863689 18364.632249326 730245.78814479
1177	76007248 16039 3413374 3978597 100.923 119.809 603 0.004 0.01 2.418 0.0097320000000001
1178	76023287 13628 3413377 3978604 100.923 119.809 603 0 0 0 0
1179	76036915 16039 3413377 3978604 100.923 119.809 603 0.004 0.01 2.418 0.0097320000000001
1180	76052954 17830 3413377 3978604 100.923 119.809 489 229.71968728635 474.55533390647 173356.14244787 63754944.764043
1181	76070784 11047 3413377 3978604 100.923 119.809 489 0 0 0 0
1182	76081831 17268 3413377 3978604 100.923 119.809 489 0.008035157651 0.014979078543 4.873752486949 0.052328661008696
1183	76099099 13628 3413377 3978604 100.923 119.809 603 0 0 0 0
1184	76112727 21452 3413404 3978633 100.9230003588 119.8090003588 489 735.2573912471 782.57893579957 367442.84555749 276176969.86899
1185	76134179 13751 3413442 3978662 100.924 119.81 603 0 1 1 1
1186	76147930 13774 3413442 3978662 100.924 119.81 604 0 1 1 1
1187	76161704 13751 3413442 3978662 100.924 119.81 603 1 2 604 606
1188	76175455 15695 3431603 3820956 101.551 114.499 685 0 1 659 659
1189	76191150 15084 3431828 3821142 101.557 114.505 659 0 1 653 653
1190	76206234 20131 3441671 3983918 101.8400004476 120 490 0.008035516451 0.014979437343 4.882563757753 0.052406767982008
1191	76226365 23 3908714 3908714 117.517 117.517 1 0 0 0 0
1192	76226388 14526 3413468 3980577 100.925 119.879 634 0 1 538 538
1193	76240914 12302 3412995 3877417 100.908 116.49 537 0 1 531 531
1226	76253216 2112 3983918 3983918 120 120 66 0.008748368669 0.008748368669 0.577392332154 0.0050512409883369
1229	76255328 9137 3430975 3983048 101.536 119.97 399 0 1 305 305
1230	76264465 6932 3459033 3970833 102.341 119.557 305 0 1 297 297
1231	76271397 23862 3983918 3983918 0.1 120 1200 0 0 0 0
1232	76295259 23862 3983918 3983918 0.1 120 1200 0 0 0 0
1233	76319121 23862 3983918 3983918 0.1 120 1200 0 0 0 0
1234	76342983 23862 3983918 3983918 0.1 120 1200 0 0 0 0
1235	76366845 23862 3983918 3983918 0.1 120 1200 0 0 0 0
1236	76390707 23862 3983918 3983918 0.1 120 1200 0 0 0 0
1237	76414569 23862 3983918 3983918 0.1 120 1200 0 0 0 0
1238	76438431 23862 3983918 3983918 0.1 120 1200 0 0 0 0
1239	76462293 23862 3983918 3983918 0.1 120 1200 0 0 0 0
1240	76486155 23862 3983918 3983918 0.1 120 1200 0 0 0 0
1241	76510017 23862 3983918 3983918 0.1 120 1200 0 0 0 0
1242	76533879 23862 3983918 3983918 0.1 120 1200 0 0 0 0
1243	76557741 23862 3983918 3983918 0.1 120 1200 0 0 0 0
1244	76581603 23862 3983918 3983918 0.1 120 1200 0 0 0 0
1245	76605465 23862 3983918 3983918 0.1 120 1200 0 0 0 0
1246	76629327 23862 3983918 3983918 0.1 120 1200 0 0 0 0
1247	76653189 23862 3983918 3983918 0.1 120 1200 0 0 0 0
1248	76677051 23862 3983918 3983918 0.1 120 1200 0 0 0 0
1249	76700913 23862 3983918 3983918 0.1 120 1200 0 0 0 0
1250	76724775 23862 3983918 3983918 0.1 120 1200 0 0 0 0

