version 3
run VoIP-DL-0-20250706-09:06:17-852236
attr configname VoIP-DL
attr datetime 20250706-09:06:17
attr datetimef 20250706-090617
attr experiment VoIP-DL
attr inifile omnetpp.ini
attr iterationvars ""
attr iterationvarsd ""
attr iterationvarsf ""
attr measurement ""
attr network Highway5G
attr processid 852236
attr repetition 0
attr replication #0
attr resultdir results
attr runnumber 0
attr seedset 0
config image-path ../../../../../../../OMNET/omnetpp-6.0.3/workspaces/inet4.5/images:../../../../../../../OMNET/omnetpp-6.0.3/workspaces/simu5g/images:../../../../../../../Dev/veins_new/images
config *.server.numApps 45
config *.server.app[*].typename VoIPSender
config *.server.app[*].localPort "3000 + ancestorIndex(0)"
config *.server.app[*].destAddress "\"car[\" + string(ancestorIndex(0)) + \"]\""
config *.server.app[*].startTime 0.05s
config *.car[*].numApps 1
config *.car[*].app[0].typename VoIPReceiver
config cmdenv-express-mode true
config cmdenv-autoflush true
config image-path ../../images
config network Highway5G
config debug-on-errors false
config print-undisposed false
config sim-time-limit 60s
config **.sctp.**.scalar-recording true
config **.sctp.**.vector-recording true
config **.routingRecorder.enabled false
config *.veinsManager.host "\"localhost\""
config *.veinsManager.port 9999
config *.veinsManager.moduleType "\"simu5g.nodes.cars.NRCar\""
config *.veinsManager.moduleName "\"car\""
config *.veinsManager.launchConfig "xmldoc(\"cenarioA.launchd.xml\")"
config *.veinsManager.updateInterval 0.1s
config *.physicalEnvironment.config "xmldoc(\"obstacles.xml\")"
config *.radioMedium.obstacleLoss.typename IdealObstacleLoss
config *.car[*].mobility.typename projectpredicthandover.veins_inet.VeinsInetMobility
config **.mobility.constraintAreaMaxX 3000m
config **.mobility.constraintAreaMinX 0m
config **.mobility.constraintAreaMaxY 3000m
config **.mobility.constraintAreaMinY 0m
config **.mobility.constraintAreaMinZ 0m
config **.mobility.constraintAreaMaxZ 10m
config *.gNodeB1.mobility.initialX 1129.71m
config *.gNodeB1.mobility.initialY 555.867m
config *.gNodeB1.mobility.initialZ 0m
config *.gNodeB1.mobility.constraintAreaMinX 1129.71m
config *.gNodeB1.mobility.constraintAreaMaxX 1129.71m
config *.gNodeB1.mobility.constraintAreaMinY 555.867m
config *.gNodeB1.mobility.constraintAreaMaxY 555.867m
config *.gNodeB1.mobility.constraintAreaMinZ 0m
config *.gNodeB1.mobility.constraintAreaMaxZ 0m
config *.gNodeB2.mobility.initialX 1600m
config *.gNodeB2.mobility.initialY 800m
config *.gNodeB2.mobility.initialZ 0m
config *.gNodeB2.mobility.constraintAreaMinX 1600m
config *.gNodeB2.mobility.constraintAreaMaxX 1600m
config *.gNodeB2.mobility.constraintAreaMinY 800m
config *.gNodeB2.mobility.constraintAreaMaxY 800m
config *.gNodeB2.mobility.constraintAreaMinZ 0m
config *.gNodeB2.mobility.constraintAreaMaxZ 0m
config **.numBands 25
config **.ueTxPower 26
config **.eNodeBTxPower 50
config *.car[*].cellularNic.nrPhy.dynamicCellAssociation true
config *.car[*].masterId 0
config *.car[*].macCellId 0
config *.car[*].nrMasterId 1
config *.car[*].nrMacCellId 1
config *.car[*].cellularNic.nrPhy.handoverThreshold -8
config **.gNodeB1.macCellId 1
config **.gNodeB1.macNodeId 1
config **.gNodeB2.macCellId 2
config **.gNodeB2.macNodeId 2
config *.car[*].cellularNic.nrMac.dynamicCellAssociation true
config *.car[*].cellularNic.nrMac.enableHandover true
config *.car[*].cellularNic.nrPhy.enableHandover true
config *.gNodeB*.cellularNic.phy.enableHandover true
config *.gNodeB*.cellularNic.nrMac.enableHandover true
config *.gNodeB*.cellularNic.phy.handoverLatency 10ms
config *.gNodeB*.cellularNic.nrMac.handoverLatency 10ms
config *.gNodeB*.cellInfo.broadcastMessageInterval 1s
config *.gNodeB*.numX2Apps 1
config *.gNodeB*.x2App[*].server.localPort "5000 + ancestorIndex(1)"
config *.gNodeB1.x2App[0].client.connectAddress "\"gNodeB2%x2ppp0\""
config *.gNodeB2.x2App[0].client.connectAddress "\"gNodeB1%x2ppp0\""
config **.sctp.nagleEnabled false
config **.sctp.enableHeartbeats false
config *.visualizer.*.obstacleLossVisualizer.displayIntersections true
config *.visualizer.*.obstacleLossVisualizer.displayFaceNormalVectors true
config *.visualizer.*.obstacleLossVisualizer.intersectionLineColor "\"yellow\""
config *.visualizer.*.mediumVisualizer.signalPropagationAnimationSpeed 500/3e8
config *.visualizer.*.mediumVisualizer.signalTransmissionAnimationSpeed 50000/3e8
config *.visualizer.*.mediumVisualizer.displaySignals true
config *.visualizer.canvasVisualizer.mediumVisualizer.displaySignalDepartures false
config *.visualizer.canvasVisualizer.mediumVisualizer.displaySignalArrivals false
config *.visualizer.*.physicalLinkVisualizer.displayLinks true
config **.scalar-recording true
config **.vector-recording true
config **.mobility.tracemobility true
config **.car[*].cellularNic.nrPhy.sinrChanged.vector-recording true
config **.car[*].cellularNic.nrPhy.rsrpChanged.vector-recording true
config **.car[*].cellularNic.nrPhy.rssiChanged.vector-recording true
config **.car[*].cellularNic.nrPhy.cellIdChanged.vector-recording true
config **.car[*].cellularNic.nrMac.handoverStarted.vector-recording true
config **.car[*].cellularNic.nrMac.handoverCompleted.vector-recording true
config **.car[*].app[*].endToEndDelay.vector-recording true
config **.car[*].app[*].throughput.vector-recording true
config **.car[*].udpApp[*].endToEndDelay.vector-recording true
config **.car[*].udpApp[*].throughput.vector-recording true
config **.car[*].cellularNic.rlc.throughput.vector-recording true
config **.car[*].cellularNic.rlc.packetDelay.vector-recording true
config **.gNodeB*.x2App[*].handoverStarted.vector-recording true
config **.gNodeB*.x2App[*].handoverCompleted.vector-recording true
config **.car[*].mobility.posX.vector-recording true
config **.car[*].mobility.posY.vector-recording true
config **.car[*].mobility.posZ.vector-recording true
config **.car[*].mobility.speed.vector-recording true

scalar Highway5G.gNodeB1.x2App[0].client ums 1452
scalar Highway5G.gNodeB2.x2App[0].client ums 1452
par Highway5G.server.pppg$o[0].channel typename "\"inet.node.ethernet.Eth10G\""
par Highway5G.server.pppg$o[0].channel disabled false
attr mutable ""
par Highway5G.server.pppg$o[0].channel delay 5e-08s
attr mutable ""
attr unit s
par Highway5G.server.pppg$o[0].channel datarate 1e+10bps
attr mutable ""
attr unit bps
par Highway5G.server.pppg$o[0].channel ber 0
attr mutable ""
par Highway5G.server.pppg$o[0].channel per 0
attr mutable ""
par Highway5G.server.pppg$o[0].channel length 10m
attr unit m
par Highway5G.router.pppg$o[0].channel typename "\"inet.node.ethernet.Eth10G\""
par Highway5G.router.pppg$o[0].channel disabled false
attr mutable ""
par Highway5G.router.pppg$o[0].channel delay 5e-08s
attr mutable ""
attr unit s
par Highway5G.router.pppg$o[0].channel datarate 1e+10bps
attr mutable ""
attr unit bps
par Highway5G.router.pppg$o[0].channel ber 0
attr mutable ""
par Highway5G.router.pppg$o[0].channel per 0
attr mutable ""
par Highway5G.router.pppg$o[0].channel length 10m
attr unit m
par Highway5G.router.pppg$o[1].channel typename "\"inet.node.ethernet.Eth10G\""
par Highway5G.router.pppg$o[1].channel disabled false
attr mutable ""
par Highway5G.router.pppg$o[1].channel delay 5e-08s
attr mutable ""
attr unit s
par Highway5G.router.pppg$o[1].channel datarate 1e+10bps
attr mutable ""
attr unit bps
par Highway5G.router.pppg$o[1].channel ber 0
attr mutable ""
par Highway5G.router.pppg$o[1].channel per 0
attr mutable ""
par Highway5G.router.pppg$o[1].channel length 10m
attr unit m
par Highway5G.upf.filterGate$o.channel typename "\"inet.node.ethernet.Eth10G\""
par Highway5G.upf.filterGate$o.channel disabled false
attr mutable ""
par Highway5G.upf.filterGate$o.channel delay 5e-08s
attr mutable ""
attr unit s
par Highway5G.upf.filterGate$o.channel datarate 1e+10bps
attr mutable ""
attr unit bps
par Highway5G.upf.filterGate$o.channel ber 0
attr mutable ""
par Highway5G.upf.filterGate$o.channel per 0
attr mutable ""
par Highway5G.upf.filterGate$o.channel length 10m
attr unit m
par Highway5G.upf.pppg$o[0].channel typename "\"inet.node.ethernet.Eth10G\""
par Highway5G.upf.pppg$o[0].channel disabled false
attr mutable ""
par Highway5G.upf.pppg$o[0].channel delay 5e-08s
attr mutable ""
attr unit s
par Highway5G.upf.pppg$o[0].channel datarate 1e+10bps
attr mutable ""
attr unit bps
par Highway5G.upf.pppg$o[0].channel ber 0
attr mutable ""
par Highway5G.upf.pppg$o[0].channel per 0
attr mutable ""
par Highway5G.upf.pppg$o[0].channel length 10m
attr unit m
par Highway5G.gNodeB1.ppp$o.channel typename "\"inet.node.ethernet.Eth10G\""
par Highway5G.gNodeB1.ppp$o.channel disabled false
attr mutable ""
par Highway5G.gNodeB1.ppp$o.channel delay 5e-08s
attr mutable ""
attr unit s
par Highway5G.gNodeB1.ppp$o.channel datarate 1e+10bps
attr mutable ""
attr unit bps
par Highway5G.gNodeB1.ppp$o.channel ber 0
attr mutable ""
par Highway5G.gNodeB1.ppp$o.channel per 0
attr mutable ""
par Highway5G.gNodeB1.ppp$o.channel length 10m
attr unit m
par Highway5G.upf.pppg$o[1].channel typename "\"inet.node.ethernet.Eth10G\""
par Highway5G.upf.pppg$o[1].channel disabled false
attr mutable ""
par Highway5G.upf.pppg$o[1].channel delay 5e-08s
attr mutable ""
attr unit s
par Highway5G.upf.pppg$o[1].channel datarate 1e+10bps
attr mutable ""
attr unit bps
par Highway5G.upf.pppg$o[1].channel ber 0
attr mutable ""
par Highway5G.upf.pppg$o[1].channel per 0
attr mutable ""
par Highway5G.upf.pppg$o[1].channel length 10m
attr unit m
par Highway5G.gNodeB2.ppp$o.channel typename "\"inet.node.ethernet.Eth10G\""
par Highway5G.gNodeB2.ppp$o.channel disabled false
attr mutable ""
par Highway5G.gNodeB2.ppp$o.channel delay 5e-08s
attr mutable ""
attr unit s
par Highway5G.gNodeB2.ppp$o.channel datarate 1e+10bps
attr mutable ""
attr unit bps
par Highway5G.gNodeB2.ppp$o.channel ber 0
attr mutable ""
par Highway5G.gNodeB2.ppp$o.channel per 0
attr mutable ""
par Highway5G.gNodeB2.ppp$o.channel length 10m
attr unit m
par Highway5G.gNodeB1.x2$o[0].channel typename "\"inet.node.ethernet.Eth10G\""
par Highway5G.gNodeB1.x2$o[0].channel disabled false
attr mutable ""
par Highway5G.gNodeB1.x2$o[0].channel delay 5e-08s
attr mutable ""
attr unit s
par Highway5G.gNodeB1.x2$o[0].channel datarate 1e+10bps
attr mutable ""
attr unit bps
par Highway5G.gNodeB1.x2$o[0].channel ber 0
attr mutable ""
par Highway5G.gNodeB1.x2$o[0].channel per 0
attr mutable ""
par Highway5G.gNodeB1.x2$o[0].channel length 10m
attr unit m
par Highway5G.gNodeB2.x2$o[0].channel typename "\"inet.node.ethernet.Eth10G\""
par Highway5G.gNodeB2.x2$o[0].channel disabled false
attr mutable ""
par Highway5G.gNodeB2.x2$o[0].channel delay 5e-08s
attr mutable ""
attr unit s
par Highway5G.gNodeB2.x2$o[0].channel datarate 1e+10bps
attr mutable ""
attr unit bps
par Highway5G.gNodeB2.x2$o[0].channel ber 0
attr mutable ""
par Highway5G.gNodeB2.x2$o[0].channel per 0
attr mutable ""
par Highway5G.gNodeB2.x2$o[0].channel length 10m
attr unit m
par Highway5G.routingRecorder typename "\"inet.networklayer.ipv4.RoutingTableRecorder\""
par Highway5G.routingRecorder enabled false
par Highway5G.configurator typename "\"inet.networklayer.configurator.ipv4.Ipv4NetworkConfigurator\""
par Highway5G.configurator minLinkWeight 0.001
par Highway5G.configurator configureIsolatedNetworksSeparatly false
par Highway5G.configurator config "<config>...</config> at /home/ester/Documents/faculdade/repo/ProjetoRedes/PredictHandoverProject5G/simulations/handover5G//demo.xml:1"
par Highway5G.configurator assignAddresses true
par Highway5G.configurator assignUniqueAddresses true
par Highway5G.configurator assignDisjunctSubnetAddresses true
par Highway5G.configurator addStaticRoutes true
par Highway5G.configurator addDefaultRoutes true
par Highway5G.configurator addSubnetRoutes true
par Highway5G.configurator addDirectRoutes true
par Highway5G.configurator optimizeRoutes true
par Highway5G.configurator dumpTopology false
par Highway5G.configurator dumpLinks false
par Highway5G.configurator dumpAddresses false
par Highway5G.configurator dumpRoutes false
par Highway5G.configurator dumpConfig "\"\""
par Highway5G.veinsManager typename "\"projectpredicthandover.veins_inet.VeinsInetManager\""
par Highway5G.veinsManager connectAt 0s
attr unit s
par Highway5G.veinsManager firstStepAt -1s
attr unit s
par Highway5G.veinsManager updateInterval 0.1s
attr unit s
par Highway5G.veinsManager moduleType "\"simu5g.nodes.cars.NRCar\""
par Highway5G.veinsManager moduleName "\"car\""
par Highway5G.veinsManager moduleDisplayString "\"*='i=veins/node/car;is=vs'\""
par Highway5G.veinsManager trafficLightModuleType "\"\""
par Highway5G.veinsManager trafficLightModuleName "\"tls\""
par Highway5G.veinsManager trafficLightFilter "\"\""
par Highway5G.veinsManager trafficLightModuleDisplayString "\"i=misc/node2;is=vs;r=0,,#707070,1\""
par Highway5G.veinsManager host "\"localhost\""
par Highway5G.veinsManager port 9999
par Highway5G.veinsManager seed -1
par Highway5G.veinsManager autoShutdown true
par Highway5G.veinsManager margin 25
par Highway5G.veinsManager roiRoads "\"\""
par Highway5G.veinsManager roiRects "\"\""
par Highway5G.veinsManager penetrationRate 1
par Highway5G.veinsManager ignoreGuiCommands false
par Highway5G.veinsManager launchConfig "<launch>...</launch> at /home/ester/Documents/faculdade/repo/ProjetoRedes/PredictHandoverProject5G/simulations/handover5G//cenarioA.launchd.xml:34"
scalar Highway5G.veinsManager roiArea 0
par Highway5G.visualizer.canvasVisualizer.sceneVisualizer typename "\"inet.visualizer.canvas.scene.SceneCanvasVisualizer\""
par Highway5G.visualizer.canvasVisualizer.sceneVisualizer visualizationTargetModule "\"^.^.^\""
par Highway5G.visualizer.canvasVisualizer.sceneVisualizer visualizationSubjectModule "\"^.^.^\""
par Highway5G.visualizer.canvasVisualizer.sceneVisualizer tags "\"\""
par Highway5G.visualizer.canvasVisualizer.sceneVisualizer physicalEnvironmentModule "\"physicalEnvironment\""
par Highway5G.visualizer.canvasVisualizer.sceneVisualizer networkNodeVisualizerModule "\"^.networkNodeVisualizer\""
par Highway5G.visualizer.canvasVisualizer.sceneVisualizer axisLength "nan m"
attr mutable ""
attr unit m
par Highway5G.visualizer.canvasVisualizer.sceneVisualizer animationSpeed 0
par Highway5G.visualizer.canvasVisualizer.sceneVisualizer sceneMinX "nan m"
attr unit m
par Highway5G.visualizer.canvasVisualizer.sceneVisualizer sceneMinY "nan m"
attr unit m
par Highway5G.visualizer.canvasVisualizer.sceneVisualizer sceneMinZ "nan m"
attr unit m
par Highway5G.visualizer.canvasVisualizer.sceneVisualizer sceneMaxX "nan m"
attr unit m
par Highway5G.visualizer.canvasVisualizer.sceneVisualizer sceneMaxY "nan m"
attr unit m
par Highway5G.visualizer.canvasVisualizer.sceneVisualizer sceneMaxZ "nan m"
attr unit m
par Highway5G.visualizer.canvasVisualizer.sceneVisualizer zIndex 0
par Highway5G.visualizer.canvasVisualizer.sceneVisualizer viewAngle "\"x right y down z out\""
attr mutable ""
par Highway5G.visualizer.canvasVisualizer.sceneVisualizer viewScale "\"1 1\""
attr mutable ""
par Highway5G.visualizer.canvasVisualizer.sceneVisualizer viewTranslation "\"0 0\""
attr mutable ""
par Highway5G.visualizer.canvasVisualizer.sceneVisualizer descriptionFigure "\"\""
par Highway5G.visualizer.canvasVisualizer.physicalEnvironmentVisualizer typename "\"inet.visualizer.canvas.environment.PhysicalEnvironmentCanvasVisualizer\""
par Highway5G.visualizer.canvasVisualizer.physicalEnvironmentVisualizer visualizationTargetModule "\"^.^.^\""
par Highway5G.visualizer.canvasVisualizer.physicalEnvironmentVisualizer visualizationSubjectModule "\"^.^.^\""
par Highway5G.visualizer.canvasVisualizer.physicalEnvironmentVisualizer tags "\"\""
par Highway5G.visualizer.canvasVisualizer.physicalEnvironmentVisualizer physicalEnvironmentModule "\"physicalEnvironment\""
par Highway5G.visualizer.canvasVisualizer.physicalEnvironmentVisualizer displayObjects true
par Highway5G.visualizer.canvasVisualizer.physicalEnvironmentVisualizer zIndex 0
par Highway5G.visualizer.canvasVisualizer.networkNodeVisualizer typename "\"inet.visualizer.canvas.scene.NetworkNodeCanvasVisualizer\""
par Highway5G.visualizer.canvasVisualizer.networkNodeVisualizer visualizationTargetModule "\"^.^.^\""
par Highway5G.visualizer.canvasVisualizer.networkNodeVisualizer visualizationSubjectModule "\"^.^.^\""
par Highway5G.visualizer.canvasVisualizer.networkNodeVisualizer tags "\"\""
par Highway5G.visualizer.canvasVisualizer.networkNodeVisualizer nodeFilter "\"*\""
attr mutable ""
par Highway5G.visualizer.canvasVisualizer.networkNodeVisualizer annotationSpacing 4
par Highway5G.visualizer.canvasVisualizer.networkNodeVisualizer placementPenalty 10
par Highway5G.visualizer.canvasVisualizer.networkNodeVisualizer zIndex 0
par Highway5G.visualizer.canvasVisualizer.networkConnectionVisualizer typename "\"inet.visualizer.canvas.scene.NetworkConnectionCanvasVisualizer\""
par Highway5G.visualizer.canvasVisualizer.networkConnectionVisualizer visualizationTargetModule "\"^.^.^\""
par Highway5G.visualizer.canvasVisualizer.networkConnectionVisualizer visualizationSubjectModule "\"^.^.^\""
par Highway5G.visualizer.canvasVisualizer.networkConnectionVisualizer tags "\"\""
par Highway5G.visualizer.canvasVisualizer.networkConnectionVisualizer displayNetworkConnections true
par Highway5G.visualizer.canvasVisualizer.networkConnectionVisualizer nodeFilter "\"\""
attr mutable ""
par Highway5G.visualizer.canvasVisualizer.networkConnectionVisualizer lineColor "\"black\""
par Highway5G.visualizer.canvasVisualizer.networkConnectionVisualizer lineStyle "\"solid\""
par Highway5G.visualizer.canvasVisualizer.networkConnectionVisualizer lineWidth 1
par Highway5G.visualizer.canvasVisualizer.networkConnectionVisualizer zIndex 0
par Highway5G.visualizer.canvasVisualizer.mobilityVisualizer typename "\"inet.visualizer.canvas.mobility.MobilityCanvasVisualizer\""
par Highway5G.visualizer.canvasVisualizer.mobilityVisualizer visualizationTargetModule "\"^.^.^\""
par Highway5G.visualizer.canvasVisualizer.mobilityVisualizer visualizationSubjectModule "\"^.^.^\""
par Highway5G.visualizer.canvasVisualizer.mobilityVisualizer tags "\"\""
par Highway5G.visualizer.canvasVisualizer.mobilityVisualizer networkNodeVisualizerModule "\"^.networkNodeVisualizer\""
par Highway5G.visualizer.canvasVisualizer.mobilityVisualizer displayMobility true
par Highway5G.visualizer.canvasVisualizer.mobilityVisualizer animationSpeed 0
par Highway5G.visualizer.canvasVisualizer.mobilityVisualizer moduleFilter "\"**.mobility\""
attr mutable ""
par Highway5G.visualizer.canvasVisualizer.mobilityVisualizer displayPositions false
par Highway5G.visualizer.canvasVisualizer.mobilityVisualizer positionCircleRadius 4
par Highway5G.visualizer.canvasVisualizer.mobilityVisualizer positionCircleLineWidth 1
par Highway5G.visualizer.canvasVisualizer.mobilityVisualizer positionCircleLineColor "\"dark\""
par Highway5G.visualizer.canvasVisualizer.mobilityVisualizer positionCircleFillColor "\"dark\""
par Highway5G.visualizer.canvasVisualizer.mobilityVisualizer displayOrientations false
par Highway5G.visualizer.canvasVisualizer.mobilityVisualizer orientationPieRadius 32
par Highway5G.visualizer.canvasVisualizer.mobilityVisualizer orientationPieSize 0.2
par Highway5G.visualizer.canvasVisualizer.mobilityVisualizer orientationPieOpacity 0.25
par Highway5G.visualizer.canvasVisualizer.mobilityVisualizer orientationLineColor "\"black\""
par Highway5G.visualizer.canvasVisualizer.mobilityVisualizer orientationLineStyle "\"solid\""
par Highway5G.visualizer.canvasVisualizer.mobilityVisualizer orientationLineWidth 1
par Highway5G.visualizer.canvasVisualizer.mobilityVisualizer orientationFillColor "\"blue\""
par Highway5G.visualizer.canvasVisualizer.mobilityVisualizer displayVelocities false
par Highway5G.visualizer.canvasVisualizer.mobilityVisualizer velocityArrowScale 1
par Highway5G.visualizer.canvasVisualizer.mobilityVisualizer velocityLineColor "\"black\""
par Highway5G.visualizer.canvasVisualizer.mobilityVisualizer velocityLineStyle "\"solid\""
par Highway5G.visualizer.canvasVisualizer.mobilityVisualizer velocityLineWidth 1
par Highway5G.visualizer.canvasVisualizer.mobilityVisualizer displayMovementTrails false
par Highway5G.visualizer.canvasVisualizer.mobilityVisualizer movementTrailLineColor "\"dark\""
par Highway5G.visualizer.canvasVisualizer.mobilityVisualizer movementTrailLineStyle "\"solid\""
par Highway5G.visualizer.canvasVisualizer.mobilityVisualizer movementTrailLineWidth 1
par Highway5G.visualizer.canvasVisualizer.mobilityVisualizer trailLength 100
par Highway5G.visualizer.canvasVisualizer.mobilityVisualizer zIndex 0
par Highway5G.visualizer.canvasVisualizer.statisticVisualizer typename "\"inet.visualizer.canvas.common.StatisticCanvasVisualizer\""
par Highway5G.visualizer.canvasVisualizer.statisticVisualizer visualizationTargetModule "\"^.^.^\""
par Highway5G.visualizer.canvasVisualizer.statisticVisualizer visualizationSubjectModule "\"^.^.^\""
par Highway5G.visualizer.canvasVisualizer.statisticVisualizer tags "\"\""
par Highway5G.visualizer.canvasVisualizer.statisticVisualizer networkNodeVisualizerModule "\"^.networkNodeVisualizer\""
par Highway5G.visualizer.canvasVisualizer.statisticVisualizer displayStatistics true
par Highway5G.visualizer.canvasVisualizer.statisticVisualizer signalName "\"\""
par Highway5G.visualizer.canvasVisualizer.statisticVisualizer statisticName "\"\""
par Highway5G.visualizer.canvasVisualizer.statisticVisualizer statisticUnit "\"\""
par Highway5G.visualizer.canvasVisualizer.statisticVisualizer statisticExpression "\"\""
par Highway5G.visualizer.canvasVisualizer.statisticVisualizer sourceFilter "\"**\""
attr mutable ""
par Highway5G.visualizer.canvasVisualizer.statisticVisualizer format "\"%n: %v %u\""
attr mutable ""
par Highway5G.visualizer.canvasVisualizer.statisticVisualizer unit "\"\""
par Highway5G.visualizer.canvasVisualizer.statisticVisualizer font "\"<default>\""
par Highway5G.visualizer.canvasVisualizer.statisticVisualizer textColor "\"black\""
par Highway5G.visualizer.canvasVisualizer.statisticVisualizer backgroundColor "\"white\""
par Highway5G.visualizer.canvasVisualizer.statisticVisualizer opacity 1
par Highway5G.visualizer.canvasVisualizer.statisticVisualizer placementHint "\"top\""
par Highway5G.visualizer.canvasVisualizer.statisticVisualizer placementPriority 0
par Highway5G.visualizer.canvasVisualizer.statisticVisualizer zIndex 10
par Highway5G.visualizer.canvasVisualizer.statisticVisualizer propertyName "\"\""
par Highway5G.visualizer.canvasVisualizer.statisticVisualizer propertyIndex "\"\""
par Highway5G.visualizer.canvasVisualizer.infoVisualizer typename "\"inet.visualizer.canvas.common.InfoCanvasVisualizer\""
par Highway5G.visualizer.canvasVisualizer.infoVisualizer visualizationTargetModule "\"^.^.^\""
par Highway5G.visualizer.canvasVisualizer.infoVisualizer visualizationSubjectModule "\"^.^.^\""
par Highway5G.visualizer.canvasVisualizer.infoVisualizer tags "\"\""
par Highway5G.visualizer.canvasVisualizer.infoVisualizer networkNodeVisualizerModule "\"^.networkNodeVisualizer\""
par Highway5G.visualizer.canvasVisualizer.infoVisualizer displayInfos true
par Highway5G.visualizer.canvasVisualizer.infoVisualizer modules "\"\""
attr mutable ""
par Highway5G.visualizer.canvasVisualizer.infoVisualizer format "\"%t\""
attr mutable ""
par Highway5G.visualizer.canvasVisualizer.infoVisualizer font "\"<default>\""
par Highway5G.visualizer.canvasVisualizer.infoVisualizer textColor "\"black\""
par Highway5G.visualizer.canvasVisualizer.infoVisualizer backgroundColor "\"white\""
par Highway5G.visualizer.canvasVisualizer.infoVisualizer opacity 1
par Highway5G.visualizer.canvasVisualizer.infoVisualizer placementHint "\"top\""
par Highway5G.visualizer.canvasVisualizer.infoVisualizer placementPriority 0
par Highway5G.visualizer.canvasVisualizer.infoVisualizer zIndex 10
par Highway5G.visualizer.canvasVisualizer.energyStorageVisualizer typename "\"inet.visualizer.canvas.power.EnergyStorageCanvasVisualizer\""
par Highway5G.visualizer.canvasVisualizer.energyStorageVisualizer visualizationTargetModule "\"^.^.^\""
par Highway5G.visualizer.canvasVisualizer.energyStorageVisualizer visualizationSubjectModule "\"^.^.^\""
par Highway5G.visualizer.canvasVisualizer.energyStorageVisualizer tags "\"\""
par Highway5G.visualizer.canvasVisualizer.energyStorageVisualizer networkNodeVisualizerModule "\"^.networkNodeVisualizer\""
par Highway5G.visualizer.canvasVisualizer.energyStorageVisualizer displayEnergyStorages false
par Highway5G.visualizer.canvasVisualizer.energyStorageVisualizer energyStorageFilter "\"**\""
par Highway5G.visualizer.canvasVisualizer.energyStorageVisualizer color "\"green\""
par Highway5G.visualizer.canvasVisualizer.energyStorageVisualizer width 8
par Highway5G.visualizer.canvasVisualizer.energyStorageVisualizer height 24
par Highway5G.visualizer.canvasVisualizer.energyStorageVisualizer spacing 2
par Highway5G.visualizer.canvasVisualizer.energyStorageVisualizer placementHint "\"right\""
par Highway5G.visualizer.canvasVisualizer.energyStorageVisualizer placementPriority 0
par Highway5G.visualizer.canvasVisualizer.energyStorageVisualizer zIndex 10
par Highway5G.visualizer.canvasVisualizer.mediumVisualizer typename "\"inet.visualizer.canvas.physicallayer.MediumCanvasVisualizer\""
par Highway5G.visualizer.canvasVisualizer.mediumVisualizer visualizationTargetModule "\"^.^.^\""
par Highway5G.visualizer.canvasVisualizer.mediumVisualizer visualizationSubjectModule "\"^.^.^\""
par Highway5G.visualizer.canvasVisualizer.mediumVisualizer tags "\"\""
par Highway5G.visualizer.canvasVisualizer.mediumVisualizer mediumModule "\"radioMedium\""
par Highway5G.visualizer.canvasVisualizer.mediumVisualizer networkNodeVisualizerModule "\"^.networkNodeVisualizer\""
par Highway5G.visualizer.canvasVisualizer.mediumVisualizer nodeFilter "\"*\""
attr mutable ""
par Highway5G.visualizer.canvasVisualizer.mediumVisualizer interfaceFilter "\"*\""
attr mutable ""
par Highway5G.visualizer.canvasVisualizer.mediumVisualizer packetFilter "(omnetpp::cValueHolder)holder: \"*\""
attr mutable ""
par Highway5G.visualizer.canvasVisualizer.mediumVisualizer displaySignals true
par Highway5G.visualizer.canvasVisualizer.mediumVisualizer signalColor "\"dark\""
par Highway5G.visualizer.canvasVisualizer.mediumVisualizer signalPropagationAnimationSpeed 1.66667e-06
attr mutable ""
par Highway5G.visualizer.canvasVisualizer.mediumVisualizer signalPropagationAnimationTime 1s
attr unit s
par Highway5G.visualizer.canvasVisualizer.mediumVisualizer signalPropagationAdditionalTime 0s
attr unit s
par Highway5G.visualizer.canvasVisualizer.mediumVisualizer signalTransmissionAnimationSpeed 0.000166667
attr mutable ""
par Highway5G.visualizer.canvasVisualizer.mediumVisualizer signalTransmissionAnimationTime 1s
attr unit s
par Highway5G.visualizer.canvasVisualizer.mediumVisualizer signalAnimationSpeedChangeTimeMode "\"realTime\""
attr enum realTime,animationTime,simulationTime
par Highway5G.visualizer.canvasVisualizer.mediumVisualizer signalAnimationSpeedChangeTime 1s
attr unit s
par Highway5G.visualizer.canvasVisualizer.mediumVisualizer displaySignalDepartures false
par Highway5G.visualizer.canvasVisualizer.mediumVisualizer signalDepartureImage "\"misc/signal_departure.png\""
par Highway5G.visualizer.canvasVisualizer.mediumVisualizer signalDeparturePlacementHint "\"topCenter\""
par Highway5G.visualizer.canvasVisualizer.mediumVisualizer signalDeparturePlacementPriority 1
par Highway5G.visualizer.canvasVisualizer.mediumVisualizer displaySignalArrivals false
par Highway5G.visualizer.canvasVisualizer.mediumVisualizer signalArrivalImage "\"misc/signal_arrival.png\""
par Highway5G.visualizer.canvasVisualizer.mediumVisualizer signalArrivalPlacementHint "\"topCenter\""
par Highway5G.visualizer.canvasVisualizer.mediumVisualizer signalArrivalPlacementPriority -1
par Highway5G.visualizer.canvasVisualizer.mediumVisualizer displayCommunicationRanges false
par Highway5G.visualizer.canvasVisualizer.mediumVisualizer communicationRangeLineColor "\"blue\""
par Highway5G.visualizer.canvasVisualizer.mediumVisualizer communicationRangeLineStyle "\"solid\""
par Highway5G.visualizer.canvasVisualizer.mediumVisualizer communicationRangeLineWidth 1
par Highway5G.visualizer.canvasVisualizer.mediumVisualizer displayInterferenceRanges false
par Highway5G.visualizer.canvasVisualizer.mediumVisualizer interferenceRangeLineColor "\"gray\""
par Highway5G.visualizer.canvasVisualizer.mediumVisualizer interferenceRangeLineStyle "\"solid\""
par Highway5G.visualizer.canvasVisualizer.mediumVisualizer interferenceRangeLineWidth 1
par Highway5G.visualizer.canvasVisualizer.mediumVisualizer autoPowerAxis true
par Highway5G.visualizer.canvasVisualizer.mediumVisualizer signalMinPower "inf dBmW"
attr unit dBmW
par Highway5G.visualizer.canvasVisualizer.mediumVisualizer signalMaxPower 0dBmW
attr unit dBmW
par Highway5G.visualizer.canvasVisualizer.mediumVisualizer signalMinPowerDensity "inf dBmWpMHz"
attr unit dBmWpMHz
par Highway5G.visualizer.canvasVisualizer.mediumVisualizer signalMaxPowerDensity "-inf dBmWpMHz"
attr unit dBmWpMHz
par Highway5G.visualizer.canvasVisualizer.mediumVisualizer autoTimeAxis true
par Highway5G.visualizer.canvasVisualizer.mediumVisualizer signalMinTime 0s
attr unit s
par Highway5G.visualizer.canvasVisualizer.mediumVisualizer signalMaxTime 0s
attr unit s
par Highway5G.visualizer.canvasVisualizer.mediumVisualizer autoFrequencyAxis true
par Highway5G.visualizer.canvasVisualizer.mediumVisualizer signalMinFrequency "inf Hz"
attr unit Hz
par Highway5G.visualizer.canvasVisualizer.mediumVisualizer signalMaxFrequency "-inf Hz"
attr unit Hz
par Highway5G.visualizer.canvasVisualizer.mediumVisualizer displayMainPowerDensityMap false
par Highway5G.visualizer.canvasVisualizer.mediumVisualizer mainPowerDensityMapPixmapDensity 1
par Highway5G.visualizer.canvasVisualizer.mediumVisualizer mainPowerDensityMapMinX 0
par Highway5G.visualizer.canvasVisualizer.mediumVisualizer mainPowerDensityMapMaxX "nan "
par Highway5G.visualizer.canvasVisualizer.mediumVisualizer mainPowerDensityMapMinY 0
par Highway5G.visualizer.canvasVisualizer.mediumVisualizer mainPowerDensityMapMaxY "nan "
par Highway5G.visualizer.canvasVisualizer.mediumVisualizer mainPowerDensityMapZ 0
par Highway5G.visualizer.canvasVisualizer.mediumVisualizer mainPowerDensityMapFigureXTickCount 3
par Highway5G.visualizer.canvasVisualizer.mediumVisualizer mainPowerDensityMapFigureYTickCount 3
par Highway5G.visualizer.canvasVisualizer.mediumVisualizer displayPowerDensityMaps false
par Highway5G.visualizer.canvasVisualizer.mediumVisualizer powerDensityMapMode "\"auto\""
attr enum total,signal,auto
par Highway5G.visualizer.canvasVisualizer.mediumVisualizer powerDensityMapPixelMode "\"mean\""
attr enum sample,partition,mean
par Highway5G.visualizer.canvasVisualizer.mediumVisualizer powerDensityMapApproximationSize 10
par Highway5G.visualizer.canvasVisualizer.mediumVisualizer powerDensityMapCenterFrequency "nan Hz"
attr mutable ""
attr unit Hz
par Highway5G.visualizer.canvasVisualizer.mediumVisualizer powerDensityMapBandwidth 0Hz
attr mutable ""
attr unit Hz
par Highway5G.visualizer.canvasVisualizer.mediumVisualizer powerDensityMapFigureWidth 200
par Highway5G.visualizer.canvasVisualizer.mediumVisualizer powerDensityMapFigureHeight 120
par Highway5G.visualizer.canvasVisualizer.mediumVisualizer powerDensityMapPixmapWidth 200
par Highway5G.visualizer.canvasVisualizer.mediumVisualizer powerDensityMapPixmapHeight 120
par Highway5G.visualizer.canvasVisualizer.mediumVisualizer powerDensityMapZ 0
par Highway5G.visualizer.canvasVisualizer.mediumVisualizer powerDensityMapFigureXTickCount 3
par Highway5G.visualizer.canvasVisualizer.mediumVisualizer powerDensityMapFigureYTickCount 3
par Highway5G.visualizer.canvasVisualizer.mediumVisualizer displaySpectrums false
par Highway5G.visualizer.canvasVisualizer.mediumVisualizer spectrumMode "\"auto\""
attr enum total,signal,auto
par Highway5G.visualizer.canvasVisualizer.mediumVisualizer spectrumFigureWidth 200
par Highway5G.visualizer.canvasVisualizer.mediumVisualizer spectrumFigureHeight 120
par Highway5G.visualizer.canvasVisualizer.mediumVisualizer spectrumFigureXTickCount 3
par Highway5G.visualizer.canvasVisualizer.mediumVisualizer spectrumFigureYTickCount 5
par Highway5G.visualizer.canvasVisualizer.mediumVisualizer spectrumFigureInterpolationSize 5
par Highway5G.visualizer.canvasVisualizer.mediumVisualizer spectrumPlacementHint "\"bottomCenter\""
par Highway5G.visualizer.canvasVisualizer.mediumVisualizer spectrumPlacementPriority -1
par Highway5G.visualizer.canvasVisualizer.mediumVisualizer displaySpectrograms false
par Highway5G.visualizer.canvasVisualizer.mediumVisualizer spectrogramMode "\"auto\""
attr enum total,signal,auto
par Highway5G.visualizer.canvasVisualizer.mediumVisualizer spectrogramPixelMode "\"mean\""
attr enum sample,partition,mean
par Highway5G.visualizer.canvasVisualizer.mediumVisualizer spectrogramFigureWidth 200
par Highway5G.visualizer.canvasVisualizer.mediumVisualizer spectrogramFigureHeight 120
par Highway5G.visualizer.canvasVisualizer.mediumVisualizer spectrogramPixmapWidth 200
par Highway5G.visualizer.canvasVisualizer.mediumVisualizer spectrogramPixmapHeight 120
par Highway5G.visualizer.canvasVisualizer.mediumVisualizer spectrogramFigureXTickCount 3
par Highway5G.visualizer.canvasVisualizer.mediumVisualizer spectrogramFigureYTickCount 5
par Highway5G.visualizer.canvasVisualizer.mediumVisualizer spectrogramPlacementHint "\"bottomCenter\""
par Highway5G.visualizer.canvasVisualizer.mediumVisualizer spectrogramPlacementPriority -1
par Highway5G.visualizer.canvasVisualizer.mediumVisualizer zIndex 0
par Highway5G.visualizer.canvasVisualizer.mediumVisualizer signalShape "\"ring\""
attr enum ring,sphere
par Highway5G.visualizer.canvasVisualizer.mediumVisualizer signalOpacity 0.5
par Highway5G.visualizer.canvasVisualizer.mediumVisualizer signalRingCount 20
par Highway5G.visualizer.canvasVisualizer.mediumVisualizer signalRingSize 50m
attr unit m
par Highway5G.visualizer.canvasVisualizer.mediumVisualizer signalFadingDistance 50m
attr unit m
par Highway5G.visualizer.canvasVisualizer.mediumVisualizer signalFadingFactor 1.2
par Highway5G.visualizer.canvasVisualizer.mediumVisualizer signalWaveCount 20
par Highway5G.visualizer.canvasVisualizer.mediumVisualizer signalWaveLength 50m
attr unit m
par Highway5G.visualizer.canvasVisualizer.mediumVisualizer signalWaveWidth 10m
attr unit m
par Highway5G.visualizer.canvasVisualizer.mediumVisualizer signalWaveFadingAnimationSpeedFactor 1
par Highway5G.visualizer.canvasVisualizer.mediumVisualizer displayCommunicationHeat false
par Highway5G.visualizer.canvasVisualizer.obstacleLossVisualizer typename "\"inet.visualizer.canvas.physicallayer.TracingObstacleLossCanvasVisualizer\""
par Highway5G.visualizer.canvasVisualizer.obstacleLossVisualizer visualizationTargetModule "\"^.^.^\""
par Highway5G.visualizer.canvasVisualizer.obstacleLossVisualizer visualizationSubjectModule "\"^.^.^\""
par Highway5G.visualizer.canvasVisualizer.obstacleLossVisualizer tags "\"\""
par Highway5G.visualizer.canvasVisualizer.obstacleLossVisualizer displayIntersections true
par Highway5G.visualizer.canvasVisualizer.obstacleLossVisualizer intersectionLineColor "\"yellow\""
par Highway5G.visualizer.canvasVisualizer.obstacleLossVisualizer intersectionLineStyle "\"solid\""
par Highway5G.visualizer.canvasVisualizer.obstacleLossVisualizer intersectionLineWidth 1
par Highway5G.visualizer.canvasVisualizer.obstacleLossVisualizer displayFaceNormalVectors true
par Highway5G.visualizer.canvasVisualizer.obstacleLossVisualizer faceNormalLineColor "\"grey\""
par Highway5G.visualizer.canvasVisualizer.obstacleLossVisualizer faceNormalLineStyle "\"solid\""
par Highway5G.visualizer.canvasVisualizer.obstacleLossVisualizer faceNormalLineWidth 1
par Highway5G.visualizer.canvasVisualizer.obstacleLossVisualizer fadeOutMode "\"realTime\""
attr enum realTime,animationTime,simulationTime
par Highway5G.visualizer.canvasVisualizer.obstacleLossVisualizer fadeOutTime 1s
attr unit s
par Highway5G.visualizer.canvasVisualizer.obstacleLossVisualizer fadeOutAnimationSpeed 0
par Highway5G.visualizer.canvasVisualizer.obstacleLossVisualizer zIndex 0
par Highway5G.visualizer.canvasVisualizer.packetDropVisualizer typename "\"inet.visualizer.canvas.common.PacketDropCanvasVisualizer\""
par Highway5G.visualizer.canvasVisualizer.packetDropVisualizer visualizationTargetModule "\"^.^.^\""
par Highway5G.visualizer.canvasVisualizer.packetDropVisualizer visualizationSubjectModule "\"^.^.^\""
par Highway5G.visualizer.canvasVisualizer.packetDropVisualizer tags "\"\""
par Highway5G.visualizer.canvasVisualizer.packetDropVisualizer displayPacketDrops false
par Highway5G.visualizer.canvasVisualizer.packetDropVisualizer nodeFilter "\"*\""
attr mutable ""
par Highway5G.visualizer.canvasVisualizer.packetDropVisualizer interfaceFilter "\"*\""
attr mutable ""
par Highway5G.visualizer.canvasVisualizer.packetDropVisualizer packetFilter "(omnetpp::cValueHolder)holder: \"*\""
attr mutable ""
par Highway5G.visualizer.canvasVisualizer.packetDropVisualizer detailsFilter "\"*\""
attr mutable ""
par Highway5G.visualizer.canvasVisualizer.packetDropVisualizer icon "\"msg/packet_s\""
par Highway5G.visualizer.canvasVisualizer.packetDropVisualizer iconTintAmount 1
par Highway5G.visualizer.canvasVisualizer.packetDropVisualizer iconTintColor "\"dark\""
par Highway5G.visualizer.canvasVisualizer.packetDropVisualizer labelFormat "\"%n\""
attr mutable ""
par Highway5G.visualizer.canvasVisualizer.packetDropVisualizer labelFont "\"<default>\""
par Highway5G.visualizer.canvasVisualizer.packetDropVisualizer labelColor "\"black\""
par Highway5G.visualizer.canvasVisualizer.packetDropVisualizer fadeOutMode "\"realTime\""
attr enum realTime,animationTime,simulationTime
par Highway5G.visualizer.canvasVisualizer.packetDropVisualizer fadeOutTime 1s
attr unit s
par Highway5G.visualizer.canvasVisualizer.packetDropVisualizer fadeOutAnimationSpeed 0
par Highway5G.visualizer.canvasVisualizer.packetDropVisualizer zIndex 10
par Highway5G.visualizer.canvasVisualizer.packetDropVisualizer dx 32
par Highway5G.visualizer.canvasVisualizer.packetDropVisualizer dy 64
par Highway5G.visualizer.canvasVisualizer.packetFlowVisualizer typename "\"inet.visualizer.canvas.flow.PacketFlowCanvasVisualizer\""
par Highway5G.visualizer.canvasVisualizer.packetFlowVisualizer visualizationTargetModule "\"^.^.^\""
par Highway5G.visualizer.canvasVisualizer.packetFlowVisualizer visualizationSubjectModule "\"^.^.^\""
par Highway5G.visualizer.canvasVisualizer.packetFlowVisualizer tags "\"\""
par Highway5G.visualizer.canvasVisualizer.packetFlowVisualizer displayRoutes false
par Highway5G.visualizer.canvasVisualizer.packetFlowVisualizer startPathSignal "\"packetFlowStarted\""
par Highway5G.visualizer.canvasVisualizer.packetFlowVisualizer extendPathSignal "\"packetReceivedFromLower\""
par Highway5G.visualizer.canvasVisualizer.packetFlowVisualizer endPathSignal "\"packetFlowEnded\""
par Highway5G.visualizer.canvasVisualizer.packetFlowVisualizer nodeFilter "\"*\""
attr mutable ""
par Highway5G.visualizer.canvasVisualizer.packetFlowVisualizer packetFilter "(omnetpp::cValueHolder)holder: \"*\""
attr mutable ""
par Highway5G.visualizer.canvasVisualizer.packetFlowVisualizer lineColor "\"dark\""
par Highway5G.visualizer.canvasVisualizer.packetFlowVisualizer lineStyle "\"dashed\""
par Highway5G.visualizer.canvasVisualizer.packetFlowVisualizer lineWidth 3
par Highway5G.visualizer.canvasVisualizer.packetFlowVisualizer lineSmooth false
par Highway5G.visualizer.canvasVisualizer.packetFlowVisualizer lineShift 16
par Highway5G.visualizer.canvasVisualizer.packetFlowVisualizer lineShiftMode "\"normal\""
par Highway5G.visualizer.canvasVisualizer.packetFlowVisualizer lineContactSpacing 3
par Highway5G.visualizer.canvasVisualizer.packetFlowVisualizer lineContactMode "\"rectangular\""
attr enum circular,rectangular
par Highway5G.visualizer.canvasVisualizer.packetFlowVisualizer labelFormat "\"%L %p pk (%l)\""
par Highway5G.visualizer.canvasVisualizer.packetFlowVisualizer labelFont "\"<default>, 8px\""
par Highway5G.visualizer.canvasVisualizer.packetFlowVisualizer labelColor "\"\""
par Highway5G.visualizer.canvasVisualizer.packetFlowVisualizer fadeOutMode "\"realTime\""
attr enum realTime,animationTime,simulationTime
par Highway5G.visualizer.canvasVisualizer.packetFlowVisualizer fadeOutTime 0s
attr unit s
par Highway5G.visualizer.canvasVisualizer.packetFlowVisualizer fadeOutAnimationSpeed 0
par Highway5G.visualizer.canvasVisualizer.packetFlowVisualizer zIndex 4
par Highway5G.visualizer.canvasVisualizer.queueVisualizer typename "\"inet.visualizer.canvas.common.QueueCanvasVisualizer\""
par Highway5G.visualizer.canvasVisualizer.queueVisualizer visualizationTargetModule "\"^.^.^\""
par Highway5G.visualizer.canvasVisualizer.queueVisualizer visualizationSubjectModule "\"^.^.^\""
par Highway5G.visualizer.canvasVisualizer.queueVisualizer tags "\"\""
par Highway5G.visualizer.canvasVisualizer.queueVisualizer networkNodeVisualizerModule "\"^.networkNodeVisualizer\""
par Highway5G.visualizer.canvasVisualizer.queueVisualizer displayQueues false
par Highway5G.visualizer.canvasVisualizer.queueVisualizer queueFilter "\"**\""
par Highway5G.visualizer.canvasVisualizer.queueVisualizer color "\"blue\""
par Highway5G.visualizer.canvasVisualizer.queueVisualizer width 8
par Highway5G.visualizer.canvasVisualizer.queueVisualizer height 24
par Highway5G.visualizer.canvasVisualizer.queueVisualizer spacing 2
par Highway5G.visualizer.canvasVisualizer.queueVisualizer placementHint "\"right\""
par Highway5G.visualizer.canvasVisualizer.queueVisualizer placementPriority 0
par Highway5G.visualizer.canvasVisualizer.queueVisualizer zIndex 10
par Highway5G.visualizer.canvasVisualizer.gateScheduleVisualizer typename "\"inet.visualizer.canvas.common.GateScheduleCanvasVisualizer\""
par Highway5G.visualizer.canvasVisualizer.gateScheduleVisualizer visualizationTargetModule "\"^.^.^\""
par Highway5G.visualizer.canvasVisualizer.gateScheduleVisualizer visualizationSubjectModule "\"^.^.^\""
par Highway5G.visualizer.canvasVisualizer.gateScheduleVisualizer tags "\"\""
par Highway5G.visualizer.canvasVisualizer.gateScheduleVisualizer networkNodeVisualizerModule "\"^.networkNodeVisualizer\""
par Highway5G.visualizer.canvasVisualizer.gateScheduleVisualizer displayGateSchedules false
par Highway5G.visualizer.canvasVisualizer.gateScheduleVisualizer labelFormat "\"%i %D\""
par Highway5G.visualizer.canvasVisualizer.gateScheduleVisualizer gateFilter "\"**\""
par Highway5G.visualizer.canvasVisualizer.gateScheduleVisualizer width 100
par Highway5G.visualizer.canvasVisualizer.gateScheduleVisualizer height 8
par Highway5G.visualizer.canvasVisualizer.gateScheduleVisualizer spacing 2
par Highway5G.visualizer.canvasVisualizer.gateScheduleVisualizer placementHint "\"right\""
par Highway5G.visualizer.canvasVisualizer.gateScheduleVisualizer placementPriority 0
par Highway5G.visualizer.canvasVisualizer.gateScheduleVisualizer displayDuration 0s
attr mutable ""
attr unit s
par Highway5G.visualizer.canvasVisualizer.gateScheduleVisualizer currentTimePosition 50
par Highway5G.visualizer.canvasVisualizer.gateScheduleVisualizer zIndex 10
par Highway5G.visualizer.canvasVisualizer.radioVisualizer typename "\"inet.visualizer.canvas.physicallayer.RadioCanvasVisualizer\""
par Highway5G.visualizer.canvasVisualizer.radioVisualizer visualizationTargetModule "\"^.^.^\""
par Highway5G.visualizer.canvasVisualizer.radioVisualizer visualizationSubjectModule "\"^.^.^\""
par Highway5G.visualizer.canvasVisualizer.radioVisualizer tags "\"\""
par Highway5G.visualizer.canvasVisualizer.radioVisualizer networkNodeVisualizerModule "\"^.networkNodeVisualizer\""
par Highway5G.visualizer.canvasVisualizer.radioVisualizer displayRadios false
par Highway5G.visualizer.canvasVisualizer.radioVisualizer displayRadioMode true
par Highway5G.visualizer.canvasVisualizer.radioVisualizer displayReceptionState true
par Highway5G.visualizer.canvasVisualizer.radioVisualizer displayTransmissionState true
par Highway5G.visualizer.canvasVisualizer.radioVisualizer displayAntennaLobes false
par Highway5G.visualizer.canvasVisualizer.radioVisualizer radioFilter "\"**\""
attr mutable ""
par Highway5G.visualizer.canvasVisualizer.radioVisualizer radioModeImages "\"block/process_vs block/timer_vs block/wrx_vs block/wtx_vs block/wrxtx_vs block/cogwheel_vs\""
par Highway5G.visualizer.canvasVisualizer.radioVisualizer receptionStateImages "\"- - misc/receiving misc/receiving\""
par Highway5G.visualizer.canvasVisualizer.radioVisualizer transmissionStateImages "\"- - misc/transmitting\""
par Highway5G.visualizer.canvasVisualizer.radioVisualizer width 16
par Highway5G.visualizer.canvasVisualizer.radioVisualizer height 16
par Highway5G.visualizer.canvasVisualizer.radioVisualizer placementHint "\"bottomRight\""
par Highway5G.visualizer.canvasVisualizer.radioVisualizer placementPriority 0
par Highway5G.visualizer.canvasVisualizer.radioVisualizer antennaLobeNormalize false
par Highway5G.visualizer.canvasVisualizer.radioVisualizer antennaLobeRelativeLabels false
par Highway5G.visualizer.canvasVisualizer.radioVisualizer antennaLobePlaneGlobal true
par Highway5G.visualizer.canvasVisualizer.radioVisualizer antennaLobePlane "\"view\""
attr enum view,xy,xz,yz
par Highway5G.visualizer.canvasVisualizer.radioVisualizer antennaLobeMode "\"logarithmic\""
attr enum logarithmic,linear
par Highway5G.visualizer.canvasVisualizer.radioVisualizer antennaLobeLogarithmicBase 10
par Highway5G.visualizer.canvasVisualizer.radioVisualizer antennaLobeLogarithmicScale 100
par Highway5G.visualizer.canvasVisualizer.radioVisualizer antennaLobeRadius 100
par Highway5G.visualizer.canvasVisualizer.radioVisualizer antennaLobeStep 10deg
attr unit deg
par Highway5G.visualizer.canvasVisualizer.radioVisualizer antennaLobeOpacity 0.25
par Highway5G.visualizer.canvasVisualizer.radioVisualizer antennaLobeLineSmooth true
par Highway5G.visualizer.canvasVisualizer.radioVisualizer antennaLobeLineColor "\"black\""
par Highway5G.visualizer.canvasVisualizer.radioVisualizer antennaLobeLineStyle "\"solid\""
par Highway5G.visualizer.canvasVisualizer.radioVisualizer antennaLobeLineWidth 1
par Highway5G.visualizer.canvasVisualizer.radioVisualizer antennaLobeFillColor "\"white\""
par Highway5G.visualizer.canvasVisualizer.radioVisualizer zIndex 10
par Highway5G.visualizer.canvasVisualizer.physicalLinkVisualizer typename "\"inet.visualizer.canvas.physicallayer.PhysicalLinkCanvasVisualizer\""
par Highway5G.visualizer.canvasVisualizer.physicalLinkVisualizer visualizationTargetModule "\"^.^.^\""
par Highway5G.visualizer.canvasVisualizer.physicalLinkVisualizer visualizationSubjectModule "\"^.^.^\""
par Highway5G.visualizer.canvasVisualizer.physicalLinkVisualizer tags "\"\""
par Highway5G.visualizer.canvasVisualizer.physicalLinkVisualizer displayLinks true
par Highway5G.visualizer.canvasVisualizer.physicalLinkVisualizer activityLevel "\"service\""
attr enum service,peer,protocol
par Highway5G.visualizer.canvasVisualizer.physicalLinkVisualizer nodeFilter "\"*\""
attr mutable ""
par Highway5G.visualizer.canvasVisualizer.physicalLinkVisualizer interfaceFilter "\"*\""
attr mutable ""
par Highway5G.visualizer.canvasVisualizer.physicalLinkVisualizer packetFilter "(omnetpp::cValueHolder)holder: \"*\""
attr mutable ""
par Highway5G.visualizer.canvasVisualizer.physicalLinkVisualizer lineColor "\"olive\""
par Highway5G.visualizer.canvasVisualizer.physicalLinkVisualizer lineStyle "\"dotted\""
par Highway5G.visualizer.canvasVisualizer.physicalLinkVisualizer lineWidth 3
par Highway5G.visualizer.canvasVisualizer.physicalLinkVisualizer lineShift 16
par Highway5G.visualizer.canvasVisualizer.physicalLinkVisualizer lineShiftMode "\"normal\""
par Highway5G.visualizer.canvasVisualizer.physicalLinkVisualizer lineContactSpacing 3
par Highway5G.visualizer.canvasVisualizer.physicalLinkVisualizer lineContactMode "\"rectangular\""
attr enum circular,rectangular
par Highway5G.visualizer.canvasVisualizer.physicalLinkVisualizer labelFormat "\"%n\""
par Highway5G.visualizer.canvasVisualizer.physicalLinkVisualizer labelFont "\"<default>, 8px\""
par Highway5G.visualizer.canvasVisualizer.physicalLinkVisualizer labelColor "\"olive\""
par Highway5G.visualizer.canvasVisualizer.physicalLinkVisualizer fadeOutMode "\"realTime\""
attr enum realTime,animationTime,simulationTime
par Highway5G.visualizer.canvasVisualizer.physicalLinkVisualizer fadeOutTime 1s
attr unit s
par Highway5G.visualizer.canvasVisualizer.physicalLinkVisualizer fadeOutAnimationSpeed 0
par Highway5G.visualizer.canvasVisualizer.physicalLinkVisualizer holdAnimationTime 0s
attr unit s
par Highway5G.visualizer.canvasVisualizer.physicalLinkVisualizer zIndex 1
par Highway5G.visualizer.canvasVisualizer.interfaceTableVisualizer typename "\"inet.visualizer.canvas.linklayer.InterfaceTableCanvasVisualizer\""
par Highway5G.visualizer.canvasVisualizer.interfaceTableVisualizer visualizationTargetModule "\"^.^.^\""
par Highway5G.visualizer.canvasVisualizer.interfaceTableVisualizer visualizationSubjectModule "\"^.^.^\""
par Highway5G.visualizer.canvasVisualizer.interfaceTableVisualizer tags "\"\""
par Highway5G.visualizer.canvasVisualizer.interfaceTableVisualizer networkNodeVisualizerModule "\"^.networkNodeVisualizer\""
par Highway5G.visualizer.canvasVisualizer.interfaceTableVisualizer displayInterfaceTables false
par Highway5G.visualizer.canvasVisualizer.interfaceTableVisualizer displayWiredInterfacesAtConnections true
par Highway5G.visualizer.canvasVisualizer.interfaceTableVisualizer displayBackground false
par Highway5G.visualizer.canvasVisualizer.interfaceTableVisualizer nodeFilter "\"*\""
attr mutable ""
par Highway5G.visualizer.canvasVisualizer.interfaceTableVisualizer interfaceFilter "\"not(lo*)\""
attr mutable ""
par Highway5G.visualizer.canvasVisualizer.interfaceTableVisualizer format "\"%N %\\\\%a%/%l\""
attr mutable ""
par Highway5G.visualizer.canvasVisualizer.interfaceTableVisualizer placementHint "\"top\""
par Highway5G.visualizer.canvasVisualizer.interfaceTableVisualizer placementPriority 0
par Highway5G.visualizer.canvasVisualizer.interfaceTableVisualizer font "\"<default>\""
par Highway5G.visualizer.canvasVisualizer.interfaceTableVisualizer textColor "\"#005030\""
par Highway5G.visualizer.canvasVisualizer.interfaceTableVisualizer backgroundColor "\"white\""
par Highway5G.visualizer.canvasVisualizer.interfaceTableVisualizer opacity 1
par Highway5G.visualizer.canvasVisualizer.interfaceTableVisualizer zIndex 10
par Highway5G.visualizer.canvasVisualizer.dataLinkVisualizer typename "\"inet.visualizer.canvas.linklayer.DataLinkCanvasVisualizer\""
par Highway5G.visualizer.canvasVisualizer.dataLinkVisualizer visualizationTargetModule "\"^.^.^\""
par Highway5G.visualizer.canvasVisualizer.dataLinkVisualizer visualizationSubjectModule "\"^.^.^\""
par Highway5G.visualizer.canvasVisualizer.dataLinkVisualizer tags "\"\""
par Highway5G.visualizer.canvasVisualizer.dataLinkVisualizer displayLinks false
par Highway5G.visualizer.canvasVisualizer.dataLinkVisualizer activityLevel "\"service\""
attr enum service,peer,protocol
par Highway5G.visualizer.canvasVisualizer.dataLinkVisualizer nodeFilter "\"*\""
attr mutable ""
par Highway5G.visualizer.canvasVisualizer.dataLinkVisualizer interfaceFilter "\"*\""
attr mutable ""
par Highway5G.visualizer.canvasVisualizer.dataLinkVisualizer packetFilter "(omnetpp::cValueHolder)holder: \"*\""
attr mutable ""
par Highway5G.visualizer.canvasVisualizer.dataLinkVisualizer lineColor "\"darkcyan\""
par Highway5G.visualizer.canvasVisualizer.dataLinkVisualizer lineStyle "\"solid\""
par Highway5G.visualizer.canvasVisualizer.dataLinkVisualizer lineWidth 3
par Highway5G.visualizer.canvasVisualizer.dataLinkVisualizer lineShift 16
par Highway5G.visualizer.canvasVisualizer.dataLinkVisualizer lineShiftMode "\"normal\""
par Highway5G.visualizer.canvasVisualizer.dataLinkVisualizer lineContactSpacing 3
par Highway5G.visualizer.canvasVisualizer.dataLinkVisualizer lineContactMode "\"rectangular\""
attr enum circular,rectangular
par Highway5G.visualizer.canvasVisualizer.dataLinkVisualizer labelFormat "\"%n\""
par Highway5G.visualizer.canvasVisualizer.dataLinkVisualizer labelFont "\"<default>, 8px\""
par Highway5G.visualizer.canvasVisualizer.dataLinkVisualizer labelColor "\"darkcyan\""
par Highway5G.visualizer.canvasVisualizer.dataLinkVisualizer fadeOutMode "\"realTime\""
attr enum realTime,animationTime,simulationTime
par Highway5G.visualizer.canvasVisualizer.dataLinkVisualizer fadeOutTime 1s
attr unit s
par Highway5G.visualizer.canvasVisualizer.dataLinkVisualizer fadeOutAnimationSpeed 0
par Highway5G.visualizer.canvasVisualizer.dataLinkVisualizer holdAnimationTime 0s
attr unit s
par Highway5G.visualizer.canvasVisualizer.dataLinkVisualizer zIndex 2
par Highway5G.visualizer.canvasVisualizer.linkBreakVisualizer typename "\"inet.visualizer.canvas.linklayer.LinkBreakCanvasVisualizer\""
par Highway5G.visualizer.canvasVisualizer.linkBreakVisualizer visualizationTargetModule "\"^.^.^\""
par Highway5G.visualizer.canvasVisualizer.linkBreakVisualizer visualizationSubjectModule "\"^.^.^\""
par Highway5G.visualizer.canvasVisualizer.linkBreakVisualizer tags "\"\""
par Highway5G.visualizer.canvasVisualizer.linkBreakVisualizer displayLinkBreaks false
par Highway5G.visualizer.canvasVisualizer.linkBreakVisualizer nodeFilter "\"*\""
attr mutable ""
par Highway5G.visualizer.canvasVisualizer.linkBreakVisualizer interfaceFilter "\"*\""
attr mutable ""
par Highway5G.visualizer.canvasVisualizer.linkBreakVisualizer packetFilter "(omnetpp::cValueHolder)holder: \"*\""
attr mutable ""
par Highway5G.visualizer.canvasVisualizer.linkBreakVisualizer icon "\"status/stop\""
par Highway5G.visualizer.canvasVisualizer.linkBreakVisualizer iconTintAmount 0
par Highway5G.visualizer.canvasVisualizer.linkBreakVisualizer iconTintColor "\"\""
par Highway5G.visualizer.canvasVisualizer.linkBreakVisualizer fadeOutMode "\"realTime\""
attr enum realTime,animationTime,simulationTime
par Highway5G.visualizer.canvasVisualizer.linkBreakVisualizer fadeOutTime 1s
attr unit s
par Highway5G.visualizer.canvasVisualizer.linkBreakVisualizer fadeOutAnimationSpeed 0
par Highway5G.visualizer.canvasVisualizer.linkBreakVisualizer zIndex 2
par Highway5G.visualizer.canvasVisualizer.ieee80211Visualizer typename "\"inet.visualizer.canvas.linklayer.Ieee80211CanvasVisualizer\""
par Highway5G.visualizer.canvasVisualizer.ieee80211Visualizer visualizationTargetModule "\"^.^.^\""
par Highway5G.visualizer.canvasVisualizer.ieee80211Visualizer visualizationSubjectModule "\"^.^.^\""
par Highway5G.visualizer.canvasVisualizer.ieee80211Visualizer tags "\"\""
par Highway5G.visualizer.canvasVisualizer.ieee80211Visualizer networkNodeVisualizerModule "\"^.networkNodeVisualizer\""
par Highway5G.visualizer.canvasVisualizer.ieee80211Visualizer displayAssociations false
par Highway5G.visualizer.canvasVisualizer.ieee80211Visualizer nodeFilter "\"*\""
attr mutable ""
par Highway5G.visualizer.canvasVisualizer.ieee80211Visualizer interfaceFilter "\"*\""
attr mutable ""
par Highway5G.visualizer.canvasVisualizer.ieee80211Visualizer minPower -85dBm
attr unit dBm
par Highway5G.visualizer.canvasVisualizer.ieee80211Visualizer maxPower -50dBm
attr unit dBm
par Highway5G.visualizer.canvasVisualizer.ieee80211Visualizer icons "\"misc/signal_power_0 misc/signal_power_1 misc/signal_power_2 misc/signal_power_3\""
par Highway5G.visualizer.canvasVisualizer.ieee80211Visualizer iconColor "\"dark\""
par Highway5G.visualizer.canvasVisualizer.ieee80211Visualizer labelFont "\"<default>\""
par Highway5G.visualizer.canvasVisualizer.ieee80211Visualizer labelColor "\"black\""
par Highway5G.visualizer.canvasVisualizer.ieee80211Visualizer placementHint "\"top\""
par Highway5G.visualizer.canvasVisualizer.ieee80211Visualizer placementPriority 0
par Highway5G.visualizer.canvasVisualizer.ieee80211Visualizer zIndex 2
par Highway5G.visualizer.canvasVisualizer.networkRouteVisualizer typename "\"inet.visualizer.canvas.networklayer.NetworkRouteCanvasVisualizer\""
par Highway5G.visualizer.canvasVisualizer.networkRouteVisualizer visualizationTargetModule "\"^.^.^\""
par Highway5G.visualizer.canvasVisualizer.networkRouteVisualizer visualizationSubjectModule "\"^.^.^\""
par Highway5G.visualizer.canvasVisualizer.networkRouteVisualizer tags "\"\""
par Highway5G.visualizer.canvasVisualizer.networkRouteVisualizer displayRoutes false
par Highway5G.visualizer.canvasVisualizer.networkRouteVisualizer startPathSignal "\"packetReceivedFromUpper\""
par Highway5G.visualizer.canvasVisualizer.networkRouteVisualizer extendPathSignal "\"packetReceivedFromLower\""
par Highway5G.visualizer.canvasVisualizer.networkRouteVisualizer endPathSignal "\"packetSentToUpper\""
par Highway5G.visualizer.canvasVisualizer.networkRouteVisualizer nodeFilter "\"*\""
attr mutable ""
par Highway5G.visualizer.canvasVisualizer.networkRouteVisualizer packetFilter "(omnetpp::cValueHolder)holder: \"*\""
attr mutable ""
par Highway5G.visualizer.canvasVisualizer.networkRouteVisualizer lineColor "\"dark\""
par Highway5G.visualizer.canvasVisualizer.networkRouteVisualizer lineStyle "\"solid\""
par Highway5G.visualizer.canvasVisualizer.networkRouteVisualizer lineWidth 3
par Highway5G.visualizer.canvasVisualizer.networkRouteVisualizer lineSmooth false
par Highway5G.visualizer.canvasVisualizer.networkRouteVisualizer lineShift 16
par Highway5G.visualizer.canvasVisualizer.networkRouteVisualizer lineShiftMode "\"normal\""
par Highway5G.visualizer.canvasVisualizer.networkRouteVisualizer lineContactSpacing 3
par Highway5G.visualizer.canvasVisualizer.networkRouteVisualizer lineContactMode "\"rectangular\""
attr enum circular,rectangular
par Highway5G.visualizer.canvasVisualizer.networkRouteVisualizer labelFormat "\"%n\""
par Highway5G.visualizer.canvasVisualizer.networkRouteVisualizer labelFont "\"<default>, 8px\""
par Highway5G.visualizer.canvasVisualizer.networkRouteVisualizer labelColor "\"\""
par Highway5G.visualizer.canvasVisualizer.networkRouteVisualizer fadeOutMode "\"realTime\""
attr enum realTime,animationTime,simulationTime
par Highway5G.visualizer.canvasVisualizer.networkRouteVisualizer fadeOutTime 1s
attr unit s
par Highway5G.visualizer.canvasVisualizer.networkRouteVisualizer fadeOutAnimationSpeed 0
par Highway5G.visualizer.canvasVisualizer.networkRouteVisualizer zIndex 3
par Highway5G.visualizer.canvasVisualizer.routingTableVisualizer typename "\"inet.visualizer.canvas.networklayer.RoutingTableCanvasVisualizer\""
par Highway5G.visualizer.canvasVisualizer.routingTableVisualizer visualizationTargetModule "\"^.^.^\""
par Highway5G.visualizer.canvasVisualizer.routingTableVisualizer visualizationSubjectModule "\"^.^.^\""
par Highway5G.visualizer.canvasVisualizer.routingTableVisualizer tags "\"\""
par Highway5G.visualizer.canvasVisualizer.routingTableVisualizer displayRoutingTables false
par Highway5G.visualizer.canvasVisualizer.routingTableVisualizer displayRoutesIndividually true
par Highway5G.visualizer.canvasVisualizer.routingTableVisualizer displayLabels true
par Highway5G.visualizer.canvasVisualizer.routingTableVisualizer destinationFilter "\"*\""
attr mutable ""
par Highway5G.visualizer.canvasVisualizer.routingTableVisualizer nodeFilter "\"*\""
attr mutable ""
par Highway5G.visualizer.canvasVisualizer.routingTableVisualizer lineColor "\"black\""
par Highway5G.visualizer.canvasVisualizer.routingTableVisualizer lineStyle "\"solid\""
par Highway5G.visualizer.canvasVisualizer.routingTableVisualizer lineWidth 2
par Highway5G.visualizer.canvasVisualizer.routingTableVisualizer lineShift 16
par Highway5G.visualizer.canvasVisualizer.routingTableVisualizer lineShiftMode "\"normal\""
par Highway5G.visualizer.canvasVisualizer.routingTableVisualizer lineContactSpacing 3
par Highway5G.visualizer.canvasVisualizer.routingTableVisualizer lineContactMode "\"rectangular\""
attr enum circular,rectangular
par Highway5G.visualizer.canvasVisualizer.routingTableVisualizer labelFormat "\"%d/%m -> %g (%n)\""
attr mutable ""
par Highway5G.visualizer.canvasVisualizer.routingTableVisualizer labelFont "\"<default>, 8px\""
par Highway5G.visualizer.canvasVisualizer.routingTableVisualizer labelColor "\"black\""
par Highway5G.visualizer.canvasVisualizer.routingTableVisualizer zIndex 0
par Highway5G.visualizer.canvasVisualizer.transportRouteVisualizer typename "\"inet.visualizer.canvas.transportlayer.TransportRouteCanvasVisualizer\""
par Highway5G.visualizer.canvasVisualizer.transportRouteVisualizer visualizationTargetModule "\"^.^.^\""
par Highway5G.visualizer.canvasVisualizer.transportRouteVisualizer visualizationSubjectModule "\"^.^.^\""
par Highway5G.visualizer.canvasVisualizer.transportRouteVisualizer tags "\"\""
par Highway5G.visualizer.canvasVisualizer.transportRouteVisualizer displayRoutes false
par Highway5G.visualizer.canvasVisualizer.transportRouteVisualizer startPathSignal "\"packetReceivedFromUpper\""
par Highway5G.visualizer.canvasVisualizer.transportRouteVisualizer extendPathSignal "\"packetReceivedFromLower\""
par Highway5G.visualizer.canvasVisualizer.transportRouteVisualizer endPathSignal "\"packetSentToUpper\""
par Highway5G.visualizer.canvasVisualizer.transportRouteVisualizer nodeFilter "\"*\""
attr mutable ""
par Highway5G.visualizer.canvasVisualizer.transportRouteVisualizer packetFilter "(omnetpp::cValueHolder)holder: \"*\""
attr mutable ""
par Highway5G.visualizer.canvasVisualizer.transportRouteVisualizer lineColor "\"dark\""
par Highway5G.visualizer.canvasVisualizer.transportRouteVisualizer lineStyle "\"solid\""
par Highway5G.visualizer.canvasVisualizer.transportRouteVisualizer lineWidth 3
par Highway5G.visualizer.canvasVisualizer.transportRouteVisualizer lineSmooth false
par Highway5G.visualizer.canvasVisualizer.transportRouteVisualizer lineShift 16
par Highway5G.visualizer.canvasVisualizer.transportRouteVisualizer lineShiftMode "\"normal\""
par Highway5G.visualizer.canvasVisualizer.transportRouteVisualizer lineContactSpacing 3
par Highway5G.visualizer.canvasVisualizer.transportRouteVisualizer lineContactMode "\"rectangular\""
attr enum circular,rectangular
par Highway5G.visualizer.canvasVisualizer.transportRouteVisualizer labelFormat "\"%n\""
par Highway5G.visualizer.canvasVisualizer.transportRouteVisualizer labelFont "\"<default>, 8px\""
par Highway5G.visualizer.canvasVisualizer.transportRouteVisualizer labelColor "\"\""
par Highway5G.visualizer.canvasVisualizer.transportRouteVisualizer fadeOutMode "\"realTime\""
attr enum realTime,animationTime,simulationTime
par Highway5G.visualizer.canvasVisualizer.transportRouteVisualizer fadeOutTime 1s
attr unit s
par Highway5G.visualizer.canvasVisualizer.transportRouteVisualizer fadeOutAnimationSpeed 0
par Highway5G.visualizer.canvasVisualizer.transportRouteVisualizer zIndex 4
par Highway5G.visualizer.canvasVisualizer.transportConnectionVisualizer typename "\"inet.visualizer.canvas.transportlayer.TransportConnectionCanvasVisualizer\""
par Highway5G.visualizer.canvasVisualizer.transportConnectionVisualizer visualizationTargetModule "\"^.^.^\""
par Highway5G.visualizer.canvasVisualizer.transportConnectionVisualizer visualizationSubjectModule "\"^.^.^\""
par Highway5G.visualizer.canvasVisualizer.transportConnectionVisualizer tags "\"\""
par Highway5G.visualizer.canvasVisualizer.transportConnectionVisualizer networkNodeVisualizerModule "\"^.networkNodeVisualizer\""
par Highway5G.visualizer.canvasVisualizer.transportConnectionVisualizer displayTransportConnections false
par Highway5G.visualizer.canvasVisualizer.transportConnectionVisualizer sourceNodeFilter "\"*\""
attr mutable ""
par Highway5G.visualizer.canvasVisualizer.transportConnectionVisualizer sourcePortFilter "\"*\""
attr mutable ""
par Highway5G.visualizer.canvasVisualizer.transportConnectionVisualizer destinationNodeFilter "\"*\""
attr mutable ""
par Highway5G.visualizer.canvasVisualizer.transportConnectionVisualizer destinationPortFilter "\"*\""
attr mutable ""
par Highway5G.visualizer.canvasVisualizer.transportConnectionVisualizer icon "\"misc/marker_s\""
par Highway5G.visualizer.canvasVisualizer.transportConnectionVisualizer iconColor "\"dark\""
par Highway5G.visualizer.canvasVisualizer.transportConnectionVisualizer labelFont "\"<default>\""
par Highway5G.visualizer.canvasVisualizer.transportConnectionVisualizer labelColor "\"black\""
par Highway5G.visualizer.canvasVisualizer.transportConnectionVisualizer placementHint "\"top\""
par Highway5G.visualizer.canvasVisualizer.transportConnectionVisualizer placementPriority 0
par Highway5G.visualizer.canvasVisualizer.transportConnectionVisualizer zIndex 4
par Highway5G.visualizer.canvasVisualizer.failureProtectionConfigurationVisualizer typename "\"inet.visualizer.canvas.configurator.FailureProtectionConfigurationCanvasVisualizer\""
par Highway5G.visualizer.canvasVisualizer.failureProtectionConfigurationVisualizer visualizationTargetModule "\"^.^.^\""
par Highway5G.visualizer.canvasVisualizer.failureProtectionConfigurationVisualizer visualizationSubjectModule "\"^.^.^\""
par Highway5G.visualizer.canvasVisualizer.failureProtectionConfigurationVisualizer tags "\"\""
par Highway5G.visualizer.canvasVisualizer.failureProtectionConfigurationVisualizer displayTrees false
par Highway5G.visualizer.canvasVisualizer.failureProtectionConfigurationVisualizer lineColor "\"dark\""
par Highway5G.visualizer.canvasVisualizer.failureProtectionConfigurationVisualizer lineStyle "\"solid\""
par Highway5G.visualizer.canvasVisualizer.failureProtectionConfigurationVisualizer lineWidth 3
par Highway5G.visualizer.canvasVisualizer.failureProtectionConfigurationVisualizer lineSmooth false
par Highway5G.visualizer.canvasVisualizer.failureProtectionConfigurationVisualizer lineShift 16
par Highway5G.visualizer.canvasVisualizer.failureProtectionConfigurationVisualizer lineShiftMode "\"normal\""
par Highway5G.visualizer.canvasVisualizer.failureProtectionConfigurationVisualizer lineContactSpacing 3
par Highway5G.visualizer.canvasVisualizer.failureProtectionConfigurationVisualizer lineContactMode "\"rectangular\""
attr enum circular,rectangular
par Highway5G.visualizer.canvasVisualizer.failureProtectionConfigurationVisualizer failureProtectionConfiguratorModule "\"failureProtectionConfigurator\""
par Highway5G.visualizer.canvasVisualizer.failureProtectionConfigurationVisualizer streamFilter "\"*\""
par Highway5G.visualizer.canvasVisualizer.failureProtectionConfigurationVisualizer zIndex 3
par Highway5G.visualizer.canvasVisualizer.streamRedundancyConfigurationVisualizer typename "\"inet.visualizer.canvas.configurator.StreamRedundancyConfigurationCanvasVisualizer\""
par Highway5G.visualizer.canvasVisualizer.streamRedundancyConfigurationVisualizer visualizationTargetModule "\"^.^.^\""
par Highway5G.visualizer.canvasVisualizer.streamRedundancyConfigurationVisualizer visualizationSubjectModule "\"^.^.^\""
par Highway5G.visualizer.canvasVisualizer.streamRedundancyConfigurationVisualizer tags "\"\""
par Highway5G.visualizer.canvasVisualizer.streamRedundancyConfigurationVisualizer displayTrees false
par Highway5G.visualizer.canvasVisualizer.streamRedundancyConfigurationVisualizer lineColor "\"dark\""
par Highway5G.visualizer.canvasVisualizer.streamRedundancyConfigurationVisualizer lineStyle "\"solid\""
par Highway5G.visualizer.canvasVisualizer.streamRedundancyConfigurationVisualizer lineWidth 3
par Highway5G.visualizer.canvasVisualizer.streamRedundancyConfigurationVisualizer lineSmooth false
par Highway5G.visualizer.canvasVisualizer.streamRedundancyConfigurationVisualizer lineShift 16
par Highway5G.visualizer.canvasVisualizer.streamRedundancyConfigurationVisualizer lineShiftMode "\"normal\""
par Highway5G.visualizer.canvasVisualizer.streamRedundancyConfigurationVisualizer lineContactSpacing 3
par Highway5G.visualizer.canvasVisualizer.streamRedundancyConfigurationVisualizer lineContactMode "\"rectangular\""
attr enum circular,rectangular
par Highway5G.visualizer.canvasVisualizer.streamRedundancyConfigurationVisualizer streamRedundancyConfiguratorModule "\"streamRedundancyConfigurator\""
par Highway5G.visualizer.canvasVisualizer.streamRedundancyConfigurationVisualizer streamFilter "\"*\""
par Highway5G.visualizer.canvasVisualizer.streamRedundancyConfigurationVisualizer zIndex 3
par Highway5G.visualizer.canvasVisualizer typename "\"inet.visualizer.canvas.integrated.IntegratedCanvasVisualizer\""
par Highway5G.visualizer typename "\"inet.visualizer.common.IntegratedVisualizer\""
par Highway5G.roadsCanvasVisualizer typename "\"org.car2x.veins.visualizer.roads.RoadsCanvasVisualizer\""
par Highway5G.roadsCanvasVisualizer enabled true
par Highway5G.roadsCanvasVisualizer lineZIndex -1
par Highway5G.roadsCanvasVisualizer lineColor "\"firebrick4\""
par Highway5G.roadsCanvasVisualizer lineWidth 1
par Highway5G.roadsCanvasVisualizer lineWidthZoom false
par Highway5G.channelControl typename "\"simu5g.world.radio.LteChannelControl\""
par Highway5G.channelControl coreDebug false
par Highway5G.channelControl pMax 20mW
attr unit mW
par Highway5G.channelControl sat -110dBm
attr unit dBm
par Highway5G.channelControl alpha 2
par Highway5G.channelControl carrierFrequency 2.4e+09Hz
attr unit Hz
par Highway5G.channelControl numChannels 1
par Highway5G.channelControl propagationModel "\"FreeSpaceModel\""
attr enum FreeSpaceModel,TwoRayGroundModel,RiceModel,RayleighModel,NakagamiModel,LogNormalShadowingModel
par Highway5G.binder typename "\"simu5g.common.binder.Binder\""
par Highway5G.binder blerShift 0
par Highway5G.binder maxDataRatePerRb 1.16Mbps
attr unit Mbps
par Highway5G.binder printTrafficGeneratorConfig false
par Highway5G.carrierAggregation.componentCarrier[0] typename "\"simu5g.common.carrierAggregation.ComponentCarrier\""
par Highway5G.carrierAggregation.componentCarrier[0] carrierFrequency 2GHz
attr unit GHz
par Highway5G.carrierAggregation.componentCarrier[0] numBands 25
par Highway5G.carrierAggregation.componentCarrier[0] numerologyIndex 0
par Highway5G.carrierAggregation.componentCarrier[0] useTdd false
par Highway5G.carrierAggregation.componentCarrier[0] tddNumSymbolsDl 7
par Highway5G.carrierAggregation.componentCarrier[0] tddNumSymbolsUl 7
par Highway5G.carrierAggregation typename "\"simu5g.common.carrierAggregation.CarrierAggregation\""
par Highway5G.carrierAggregation numComponentCarriers 1
par Highway5G.server.pppg$i[0].channel typename "\"ned.IdealChannel\""
par Highway5G.server.ppp[0].phys$o.channel typename "\"ned.IdealChannel\""
par Highway5G.server.interfaceTable typename "\"inet.networklayer.common.InterfaceTable\""
par Highway5G.server.interfaceTable displayAddresses false
par Highway5G.server.cb typename "\"inet.common.MessageDispatcher\""
par Highway5G.server.cb displayStringTextFormat "\"processed %p pk (%l)\""
par Highway5G.server.cb forwardServiceRegistration true
par Highway5G.server.cb forwardProtocolRegistration true
par Highway5G.server.bl typename "\"inet.common.MessageDispatcher\""
par Highway5G.server.bl displayStringTextFormat "\"processed %p pk (%l)\""
par Highway5G.server.bl forwardServiceRegistration true
par Highway5G.server.bl forwardProtocolRegistration true
par Highway5G.server.li typename "\"inet.common.MessageDispatcher\""
par Highway5G.server.li displayStringTextFormat "\"processed %p pk (%l)\""
par Highway5G.server.li forwardServiceRegistration true
par Highway5G.server.li forwardProtocolRegistration true
par Highway5G.server.lo[0].upperLayerIn.channel typename "\"ned.IdealChannel\""
par Highway5G.server.lo[0].lo.upperLayerOut.channel typename "\"ned.IdealChannel\""
par Highway5G.server.lo[0].lo typename "\"inet.linklayer.loopback.Loopback\""
par Highway5G.server.lo[0].lo interfaceTableModule "\"Highway5G.server.interfaceTable\""
par Highway5G.server.lo[0].lo mtu 4470B
attr unit B
scalar Highway5G.server.lo[0].lo rcvdPkFromHl:count 0
attr interpolationmode none
attr recordingmode count
attr source packetReceivedFromUpper
attr title "packets received from higher layer, count"
scalar Highway5G.server.lo[0].lo rcvdPkFromHl:sum(packetBytes) 0
attr interpolationmode none
attr recordingmode sum(packetBytes)
attr source packetReceivedFromUpper
attr title "packets received from higher layer, sum(packetBytes)"
scalar Highway5G.server.lo[0].lo passedUpPk:count 0
attr interpolationmode none
attr recordingmode count
attr source packetSentToUpper
attr title "packets passed to higher layer, count"
scalar Highway5G.server.lo[0].lo passedUpPk:sum(packetBytes) 0
attr interpolationmode none
attr recordingmode sum(packetBytes)
attr source packetSentToUpper
attr title "packets passed to higher layer, sum(packetBytes)"
par Highway5G.server.lo[0] typename "\"inet.linklayer.loopback.LoopbackInterface\""
par Highway5G.server.lo[0] displayStringTextFormat "\"%a (%i)\\n%m\""
par Highway5G.server.lo[0] recordPcap false
par Highway5G.server.lo[0] numPcapRecorders 0
par Highway5G.server.lo[0] interfaceTableModule "\"Highway5G.server.interfaceTable\""
scalar Highway5G.server.lo[0] packetDropInterfaceDown:count 0
attr interpolationmode none
attr recordingmode count
attr source packetDropReasonIsInterfaceDown(packetDropped)
attr title "packet drops: interface down, count"
scalar Highway5G.server.lo[0] packetDropInterfaceDown:sum(packetBytes) 0
attr interpolationmode none
attr recordingmode sum(packetBytes)
attr source packetDropReasonIsInterfaceDown(packetDropped)
attr title "packet drops: interface down, sum(packetBytes)"
scalar Highway5G.server.lo[0] packetDropNoCarrier:count 0
attr interpolationmode none
attr recordingmode count
attr source packetDropReasonIsNoCarrier(packetDropped)
attr title "packet drops: no carrier, count"
scalar Highway5G.server.lo[0] packetDropNoCarrier:sum(packetBytes) 0
attr interpolationmode none
attr recordingmode sum(packetBytes)
attr source packetDropReasonIsNoCarrier(packetDropped)
attr title "packet drops: no carrier, sum(packetBytes)"
par Highway5G.server.ppp[0].phys$i.channel typename "\"ned.IdealChannel\""
par Highway5G.server.ppp[0].ppp.phys$o.channel typename "\"ned.IdealChannel\""
par Highway5G.server.ppp[0].ppp.upperLayerOut.channel typename "\"ned.IdealChannel\""
par Highway5G.server.ppp[0].upperLayerIn.channel typename "\"ned.IdealChannel\""
par Highway5G.server.ppp[0].queue typename "\"inet.queueing.queue.DropTailQueue\""
par Highway5G.server.ppp[0].queue displayStringTextFormat "\"contains %p pk (%l) pushed %u\\npulled %o removed %r dropped %d\""
par Highway5G.server.ppp[0].queue packetCapacity 10000
par Highway5G.server.ppp[0].queue dataCapacity -1b
attr unit b
par Highway5G.server.ppp[0].queue dropperClass "\"inet::queueing::PacketAtCollectionEndDropper\""
par Highway5G.server.ppp[0].queue comparatorClass "\"\""
par Highway5G.server.ppp[0].queue bufferModule "\"\""
scalar Highway5G.server.ppp[0].queue queueLength:last 0
attr autoWarmupFilter false
attr interpolationmode sample-hold
attr recordingmode last
attr source "warmup(atomic(constant0(packetPushEnded) + count(packetPushStarted) - count(packetPulled) - count(packetRemoved) - count(packetDropped)))"
attr title "queue length, last"
attr unit pk
scalar Highway5G.server.ppp[0].queue queueLength:max 2
attr autoWarmupFilter false
attr interpolationmode sample-hold
attr recordingmode max
attr source "warmup(atomic(constant0(packetPushEnded) + count(packetPushStarted) - count(packetPulled) - count(packetRemoved) - count(packetDropped)))"
attr title "queue length, max"
attr unit pk
scalar Highway5G.server.ppp[0].queue queueLength:timeavg 1.2219959266802e-06
attr autoWarmupFilter false
attr interpolationmode sample-hold
attr recordingmode timeavg
attr source "warmup(atomic(constant0(packetPushEnded) + count(packetPushStarted) - count(packetPulled) - count(packetRemoved) - count(packetDropped)))"
attr title "queue length, timeavg"
attr unit pk
scalar Highway5G.server.ppp[0].queue queueBitLength:last 0
attr autoWarmupFilter false
attr interpolationmode sample-hold
attr recordingmode last
attr source "warmup(atomic(constant0(packetPushEnded) + sum(packetLength(packetPushStarted)) - sum(packetLength(packetPulled)) - sum(packetLength(packetRemoved)) - sum(packetLength(packetDropped))))"
attr title "queue bit length, last"
attr unit b
scalar Highway5G.server.ppp[0].queue queueBitLength:max 1088
attr autoWarmupFilter false
attr interpolationmode sample-hold
attr recordingmode max
attr source "warmup(atomic(constant0(packetPushEnded) + sum(packetLength(packetPushStarted)) - sum(packetLength(packetPulled)) - sum(packetLength(packetRemoved)) - sum(packetLength(packetDropped))))"
attr title "queue bit length, max"
attr unit b
scalar Highway5G.server.ppp[0].queue queueBitLength:timeavg 0.00066476578411405
attr autoWarmupFilter false
attr interpolationmode sample-hold
attr recordingmode timeavg
attr source "warmup(atomic(constant0(packetPushEnded) + sum(packetLength(packetPushStarted)) - sum(packetLength(packetPulled)) - sum(packetLength(packetRemoved)) - sum(packetLength(packetDropped))))"
attr title "queue bit length, timeavg"
attr unit b
statistic Highway5G.server.ppp[0].queue queueingTime:histogram
field count 436
field mean 1.5137614678899e-08
field stddev 3.1016930605433e-08
field min 0
field max 1.2e-07
field sum 6.6e-06
field sqrsum 5.184e-13
attr interpolationmode none
attr recordingmode histogram
attr source queueingTime(packetPulled)
attr title "queueing times"
attr unit s
bin	-inf	0
bin	-0.5	0
bin	-0.48	0
bin	-0.46	0
bin	-0.44	0
bin	-0.42	0
bin	-0.4	0
bin	-0.38	0
bin	-0.36	0
bin	-0.34	0
bin	-0.32	0
bin	-0.3	0
bin	-0.28	0
bin	-0.26	0
bin	-0.24	0
bin	-0.22	0
bin	-0.2	0
bin	-0.18	0
bin	-0.16	0
bin	-0.14	0
bin	-0.12	0
bin	-0.1	0
bin	-0.08	0
bin	-0.06	0
bin	-0.04	0
bin	-0.02	0
bin	0	436
bin	0.02	0
bin	0.04	0
bin	0.06	0
bin	0.08	0
bin	0.1	0
bin	0.12	0
bin	0.14	0
bin	0.16	0
bin	0.18	0
bin	0.2	0
bin	0.22	0
bin	0.24	0
bin	0.26	0
bin	0.28	0
bin	0.3	0
bin	0.32	0
bin	0.34	0
bin	0.36	0
bin	0.38	0
bin	0.4	0
bin	0.42	0
bin	0.44	0
bin	0.46	0
bin	0.48	0
bin	0.5	0
scalar Highway5G.server.ppp[0].queue outgoingPackets:count 436
attr recordingmode count
attr source packetPulled
attr title "outgoing packets, count"
attr unit pk
scalar Highway5G.server.ppp[0].queue outgoingPacketLengths:sum 237184
attr interpolationmode none
attr recordingmode sum
attr source packetLength(packetPulled)
attr title "outgoing packet lengths, sum"
attr unit b
statistic Highway5G.server.ppp[0].queue outgoingPacketLengths:histogram
field count 436
field mean 544
field stddev 0
field min 544
field max 544
field sum 237184
field sqrsum 129028096
attr interpolationmode none
attr recordingmode histogram
attr source packetLength(packetPulled)
attr title "outgoing packet lengths"
attr unit b
bin	-inf	0
bin	543	0
bin	544	436
bin	545	0
statistic Highway5G.server.ppp[0].queue flowQueueingTime:histogram
field count 0
field mean -nan
field stddev -nan
field min -nan
field max -nan
field sum 0
field sqrsum 0
attr interpolationmode none
attr recordingmode histogram
attr source queueingTime(demuxFlow(packetPulled))
attr title "flow queueing times"
attr unit s
bin	-inf	0
bin	0	0
bin	1	0
scalar Highway5G.server.ppp[0].queue incomingPackets:count 436
attr recordingmode count
attr source packetPushStarted
attr title "incoming packets, count"
attr unit pk
scalar Highway5G.server.ppp[0].queue incomingPacketLengths:sum 237184
attr interpolationmode none
attr recordingmode sum
attr source packetLength(packetPushStarted)
attr title "incoming packet lengths, sum"
attr unit b
statistic Highway5G.server.ppp[0].queue incomingPacketLengths:histogram
field count 436
field mean 544
field stddev 0
field min 544
field max 544
field sum 237184
field sqrsum 129028096
attr interpolationmode none
attr recordingmode histogram
attr source packetLength(packetPushStarted)
attr title "incoming packet lengths"
attr unit b
bin	-inf	0
bin	543	0
bin	544	436
bin	545	0
scalar Highway5G.server.ppp[0].queue droppedPacketsQueueOverflow:count 0
attr interpolationmode none
attr recordingmode count
[...]
par Highway5G.car[6].cellularNic.nrDlFbGen fbPeriod 6
par Highway5G.car[6].cellularNic.nrDlFbGen fbDelay 1
par Highway5G.car[6].cellularNic.nrDlFbGen usePeriodic true
par Highway5G.car[6].cellularNic.nrDlFbGen initialTxMode "\"SINGLE_ANTENNA_PORT0\""
par Highway5G.car[6].cellularNic.nrDlFbGen feedbackGeneratorType "\"IDEAL\""
par Highway5G.car[6].cellularNic typename "\"simu5g.stack.NRNicUe\""
par Highway5G.car[6].cellularNic displayStringTextFormat "\"%a (%i)\\n%m\""
par Highway5G.car[6].cellularNic recordPcap false
par Highway5G.car[6].cellularNic numPcapRecorders 0
par Highway5G.car[6].cellularNic isWireless true
par Highway5G.car[6].cellularNic interfaceTableModule "\"Highway5G.car[6].interfaceTable\""
par Highway5G.car[6].cellularNic routingTableModule "\"Highway5G.car[6].ipv4.routingTable\""
par Highway5G.car[6].cellularNic LtePdcpRrcType "\"NRPdcpRrcUe\""
par Highway5G.car[6].cellularNic LteMacType "\"LteMacUeD2D\""
par Highway5G.car[6].cellularNic PacketFlowManagerType "\"PacketFlowManagerUe\""
par Highway5G.car[6].cellularNic hasRNISupport false
par Highway5G.car[6].cellularNic LtePhyType "\"NRPhyUe\""
par Highway5G.car[6].cellularNic nodeType "\"UE\""
par Highway5G.car[6].cellularNic processingDelayIn 0s
attr unit s
par Highway5G.car[6].cellularNic processingDelayOut 0s
attr unit s
par Highway5G.car[6].cellularNic LteChannelModelType "\"LteRealisticChannelModel\""
par Highway5G.car[6].cellularNic d2dCapable true
par Highway5G.car[6].cellularNic dualConnectivityEnabled false
par Highway5G.car[6].cellularNic numCarriers 1
par Highway5G.car[6].cellularNic address "\"0A-AA-00-00-00-09\""
attr mutable ""
par Highway5G.car[6].cellularNic d2dInitialMode false
par Highway5G.car[6].cellularNic NRMacType "\"NRMacUe\""
par Highway5G.car[6].cellularNic NRPhyType "\"NRPhyUe\""
par Highway5G.car[6].cellularNic NRChannelModelType "\"NRChannelModel_3GPP38_901\""
par Highway5G.car[6].cellularNic NRPacketFlowManagerType "\"NRPacketFlowManagerUe\""
par Highway5G.car[6].cellularNic numNRCarriers 1
scalar Highway5G.car[6].cellularNic packetDropInterfaceDown:count 0
attr interpolationmode none
attr recordingmode count
attr source packetDropReasonIsInterfaceDown(packetDropped)
attr title "packet drops: interface down, count"
scalar Highway5G.car[6].cellularNic packetDropInterfaceDown:sum(packetBytes) 0
attr interpolationmode none
attr recordingmode sum(packetBytes)
attr source packetDropReasonIsInterfaceDown(packetDropped)
attr title "packet drops: interface down, sum(packetBytes)"
scalar Highway5G.car[6].cellularNic packetDropNoCarrier:count 0
attr interpolationmode none
attr recordingmode count
attr source packetDropReasonIsNoCarrier(packetDropped)
attr title "packet drops: no carrier, count"
scalar Highway5G.car[6].cellularNic packetDropNoCarrier:sum(packetBytes) 0
attr interpolationmode none
attr recordingmode sum(packetBytes)
attr source packetDropReasonIsNoCarrier(packetDropped)
attr title "packet drops: no carrier, sum(packetBytes)"
par Highway5G.car[6].encap typename "\"inet.linklayer.ethernet.basic.EthernetEncapsulation\""
par Highway5G.car[6].encap registerProtocol true
par Highway5G.car[6].encap interfaceTableModule "\"Highway5G.car[6].interfaceTable\""
par Highway5G.car[6].encap fcsMode "\"declared\""
attr enum declared,computed
par Highway5G.car[6].encap stopOperationExtraTime -1s
attr unit s
par Highway5G.car[6].encap stopOperationTimeout 2s
attr unit s
scalar Highway5G.car[6].encap pauseSent:count 0
attr recordingmode count
attr title "pause sent, count"
scalar Highway5G.car[6].encap pauseSent:sum 0
attr recordingmode sum
attr title "pause sent, sum"
scalar Highway5G.car[6].encap decapPk:count 0
attr interpolationmode none
attr recordingmode count
attr source decapPk
attr title "packets decapsulated, count"
scalar Highway5G.car[6].encap decapPk:sum(packetBytes) 0
attr interpolationmode none
attr recordingmode sum(packetBytes)
attr source decapPk
attr title "packets decapsulated, sum(packetBytes)"
scalar Highway5G.car[6].encap encapPk:count 0
attr interpolationmode none
attr recordingmode count
attr source encapPk
attr title "packets encapsulated, count"
scalar Highway5G.car[6].encap encapPk:sum(packetBytes) 0
attr interpolationmode none
attr recordingmode sum(packetBytes)
attr source encapPk
attr title "packets encapsulated, sum(packetBytes)"
par Highway5G.car[6].ipv4.transportIn.channel typename "\"ned.IdealChannel\""
par Highway5G.car[6].ipv4.up.out[0].channel typename "\"ned.IdealChannel\""
par Highway5G.car[6].ipv4.lp.out[2].channel typename "\"ned.IdealChannel\""
par Highway5G.car[6].ipv4.ifIn.channel typename "\"ned.IdealChannel\""
par Highway5G.car[6].ipv4.configurator typename "\"inet.networklayer.configurator.ipv4.HostAutoConfigurator\""
par Highway5G.car[6].ipv4.configurator interfaceTableModule "\"Highway5G.car[6].interfaceTable\""
par Highway5G.car[6].ipv4.configurator interfaces "\"cellular lo0\""
par Highway5G.car[6].ipv4.configurator addressBase "\"10.0.0.0\""
par Highway5G.car[6].ipv4.configurator netmask "\"255.0.0.0\""
par Highway5G.car[6].ipv4.configurator mcastGroups "\"\""
par Highway5G.car[6].ipv4.routingTable typename "\"inet.networklayer.ipv4.Ipv4RoutingTable\""
par Highway5G.car[6].ipv4.routingTable interfaceTableModule "\"Highway5G.car[6].interfaceTable\""
par Highway5G.car[6].ipv4.routingTable routerId "\"auto\""
par Highway5G.car[6].ipv4.routingTable netmaskRoutes "\"*\""
par Highway5G.car[6].ipv4.routingTable forwarding false
par Highway5G.car[6].ipv4.routingTable multicastForwarding false
par Highway5G.car[6].ipv4.routingTable useAdminDist false
par Highway5G.car[6].ipv4.routingTable routingFile "\"\""
par Highway5G.car[6].ipv4.natTable typename "\"inet.networklayer.ipv4.Ipv4NatTable\""
par Highway5G.car[6].ipv4.natTable networkProtocolModule "\"^.ip\""
par Highway5G.car[6].ipv4.natTable config "<config/> at content:1"
par Highway5G.car[6].ipv4.up typename "\"inet.common.MessageDispatcher\""
par Highway5G.car[6].ipv4.up displayStringTextFormat "\"processed %p pk (%l)\""
par Highway5G.car[6].ipv4.up forwardServiceRegistration true
par Highway5G.car[6].ipv4.up forwardProtocolRegistration true
par Highway5G.car[6].ipv4.igmp typename "\"inet.networklayer.ipv4.Igmpv2\""
par Highway5G.car[6].ipv4.igmp interfaceTableModule "\"Highway5G.car[6].interfaceTable\""
par Highway5G.car[6].ipv4.igmp routingTableModule "\"Highway5G.car[6].ipv4.routingTable\""
par Highway5G.car[6].ipv4.igmp crcMode "\"declared\""
attr enum declared,computed
par Highway5G.car[6].ipv4.igmp enabled true
par Highway5G.car[6].ipv4.igmp robustnessVariable 2
par Highway5G.car[6].ipv4.igmp queryInterval 125s
attr unit s
par Highway5G.car[6].ipv4.igmp queryResponseInterval 10s
attr unit s
par Highway5G.car[6].ipv4.igmp groupMembershipInterval 260s
attr unit s
par Highway5G.car[6].ipv4.igmp otherQuerierPresentInterval 255s
attr unit s
par Highway5G.car[6].ipv4.igmp startupQueryInterval 31.25s
attr unit s
par Highway5G.car[6].ipv4.igmp startupQueryCount 2
par Highway5G.car[6].ipv4.igmp lastMemberQueryInterval 1s
attr unit s
par Highway5G.car[6].ipv4.igmp lastMemberQueryCount 2
par Highway5G.car[6].ipv4.igmp unsolicitedReportInterval 10s
attr unit s
par Highway5G.car[6].ipv4.icmp typename "\"inet.networklayer.ipv4.Icmp\""
par Highway5G.car[6].ipv4.icmp interfaceTableModule "\"Highway5G.car[6].interfaceTable\""
par Highway5G.car[6].ipv4.icmp routingTableModule "\"Highway5G.car[6].ipv4.routingTable\""
par Highway5G.car[6].ipv4.icmp crcMode "\"declared\""
attr enum declared,computed
attr mutable ""
par Highway5G.car[6].ipv4.icmp quoteLength 8B
attr mutable ""
attr unit B
par Highway5G.car[6].ipv4.mp typename "\"inet.common.MessageDispatcher\""
par Highway5G.car[6].ipv4.mp displayStringTextFormat "\"processed %p pk (%l)\""
par Highway5G.car[6].ipv4.mp forwardServiceRegistration true
par Highway5G.car[6].ipv4.mp forwardProtocolRegistration true
par Highway5G.car[6].ipv4.ip typename "\"inet.networklayer.ipv4.Ipv4\""
par Highway5G.car[6].ipv4.ip interfaceTableModule "\"Highway5G.car[6].interfaceTable\""
par Highway5G.car[6].ipv4.ip routingTableModule "\"Highway5G.car[6].ipv4.routingTable\""
par Highway5G.car[6].ipv4.ip arpModule "\"Highway5G.car[6].ipv4.arp\""
par Highway5G.car[6].ipv4.ip icmpModule "\"Highway5G.car[6].ipv4.icmp\""
par Highway5G.car[6].ipv4.ip crcMode "\"declared\""
attr enum declared,computed
par Highway5G.car[6].ipv4.ip timeToLive 32
par Highway5G.car[6].ipv4.ip multicastTimeToLive 32
par Highway5G.car[6].ipv4.ip fragmentTimeout 60s
attr unit s
par Highway5G.car[6].ipv4.ip limitedBroadcast false
par Highway5G.car[6].ipv4.ip directBroadcastInterfaces "\"\""
scalar Highway5G.car[6].ipv4.ip packetDropAddressResolutionFailed:count 0
attr interpolationmode none
attr recordingmode count
attr source packetDropReasonIsAddressResolutionFailed(packetDropped)
attr title "packet drop: address resolution failed, count"
scalar Highway5G.car[6].ipv4.ip packetDropAddressResolutionFailed:sum(packetBytes) 0
attr interpolationmode none
attr recordingmode sum(packetBytes)
attr source packetDropReasonIsAddressResolutionFailed(packetDropped)
attr title "packet drop: address resolution failed, sum(packetBytes)"
scalar Highway5G.car[6].ipv4.ip packetDropHopLimitReached:count 0
attr interpolationmode none
attr recordingmode count
attr source packetDropReasonIsHopLimitReached(packetDropped)
attr title "packet drop: hop limit reached, count"
scalar Highway5G.car[6].ipv4.ip packetDropHopLimitReached:sum(packetBytes) 0
attr interpolationmode none
attr recordingmode sum(packetBytes)
attr source packetDropReasonIsHopLimitReached(packetDropped)
attr title "packet drop: hop limit reached, sum(packetBytes)"
scalar Highway5G.car[6].ipv4.ip packetDropForwardingDisabled:count 0
attr interpolationmode none
attr recordingmode count
attr source packetDropReasonIsForwardingDisabled(packetDropped)
attr title "packet drop: forwarding disabled, count"
scalar Highway5G.car[6].ipv4.ip packetDropForwardingDisabled:sum(packetBytes) 0
attr interpolationmode none
attr recordingmode sum(packetBytes)
attr source packetDropReasonIsForwardingDisabled(packetDropped)
attr title "packet drop: forwarding disabled, sum(packetBytes)"
scalar Highway5G.car[6].ipv4.ip packetDropNoInterfaceFound:count 0
attr interpolationmode none
attr recordingmode count
attr source packetDropReasonIsNoInterfaceFound(packetDropped)
attr title "packet drop: no interface found, count"
scalar Highway5G.car[6].ipv4.ip packetDropNoInterfaceFound:sum(packetBytes) 0
attr interpolationmode none
attr recordingmode sum(packetBytes)
attr source packetDropReasonIsNoInterfaceFound(packetDropped)
attr title "packet drop: no interface found, sum(packetBytes)"
scalar Highway5G.car[6].ipv4.ip packetDropNoRouteFound:count 0
attr interpolationmode none
attr recordingmode count
attr source packetDropReasonIsNoRouteFound(packetDropped)
attr title "packet drop: no route found, count"
scalar Highway5G.car[6].ipv4.ip packetDropNoRouteFound:sum(packetBytes) 0
attr interpolationmode none
attr recordingmode sum(packetBytes)
attr source packetDropReasonIsNoRouteFound(packetDropped)
attr title "packet drop: no route found, sum(packetBytes)"
scalar Highway5G.car[6].ipv4.ip packetDropUndefined:count 0
attr interpolationmode none
attr recordingmode count
attr source packetDropReasonIsUndefined(packetDropped)
attr title "packet drop: undefined, count"
scalar Highway5G.car[6].ipv4.ip packetDropUndefined:sum(packetBytes) 0
attr interpolationmode none
attr recordingmode sum(packetBytes)
attr source packetDropReasonIsUndefined(packetDropped)
attr title "packet drop: undefined, sum(packetBytes)"
par Highway5G.car[6].ipv4.arp typename "\"inet.networklayer.arp.ipv4.Arp\""
par Highway5G.car[6].ipv4.arp interfaceTableModule "\"Highway5G.car[6].interfaceTable\""
par Highway5G.car[6].ipv4.arp routingTableModule "\"Highway5G.car[6].ipv4.routingTable\""
par Highway5G.car[6].ipv4.arp retryTimeout 1s
attr unit s
par Highway5G.car[6].ipv4.arp retryCount 3
par Highway5G.car[6].ipv4.arp cacheTimeout 120s
attr unit s
par Highway5G.car[6].ipv4.arp proxyArpInterfaces "\"*\""
scalar Highway5G.car[6].ipv4.arp arpResolutionFailed:count 0
attr recordingmode count
attr title "ARP failed resolutions, count"
scalar Highway5G.car[6].ipv4.arp arpResolutionCompleted:count 0
attr recordingmode count
attr title "ARP completed resolutions, count"
scalar Highway5G.car[6].ipv4.arp arpResolutionInitiated:count 0
attr recordingmode count
attr title "ARP initiated resolutions, count"
scalar Highway5G.car[6].ipv4.arp arpReplySent:count 0
attr recordingmode count
attr source arpReplySent
attr title "ARP replies sent, count"
scalar Highway5G.car[6].ipv4.arp arpReplySent:sum(packetBytes) 0
attr recordingmode sum(packetBytes)
attr source arpReplySent
attr title "ARP replies sent, sum(packetBytes)"
scalar Highway5G.car[6].ipv4.arp arpRequestSent:count 0
attr recordingmode count
attr source arpRequestSent
attr title "ARP request sent, count"
scalar Highway5G.car[6].ipv4.arp arpRequestSent:sum(packetBytes) 0
attr recordingmode sum(packetBytes)
attr source arpRequestSent
attr title "ARP request sent, sum(packetBytes)"
par Highway5G.car[6].ipv4.lp typename "\"inet.common.MessageDispatcher\""
par Highway5G.car[6].ipv4.lp displayStringTextFormat "\"processed %p pk (%l)\""
par Highway5G.car[6].ipv4.lp forwardServiceRegistration true
par Highway5G.car[6].ipv4.lp forwardProtocolRegistration true
par Highway5G.car[6].ipv4 typename "\"inet.networklayer.ipv4.Ipv4NetworkLayer\""
par Highway5G.car[6].ipv4 forwarding false
par Highway5G.car[6].ipv4 multicastForwarding false
par Highway5G.car[6].ipv4 interfaceTableModule "\"Highway5G.car[6].interfaceTable\""
par Highway5G.car[6].ipv4 displayStringTextFormat "\"%i\""
par Highway5G.car[6].udp typename "\"inet.transportlayer.udp.Udp\""
par Highway5G.car[6].udp interfaceTableModule "\"Highway5G.car[6].interfaceTable\""
par Highway5G.car[6].udp icmpModule "\"^.ipv4.icmp\""
par Highway5G.car[6].udp icmpv6Module "\"^.ipv6.icmpv6\""
par Highway5G.car[6].udp crcMode "\"declared\""
attr enum disabled,declared,computed
par Highway5G.car[6].udp defaultMulticastLoop true
scalar Highway5G.car[6].udp packetReceived:count 13
attr interpolationmode none
attr recordingmode count
attr source packetReceived
attr title "packets received, count"
scalar Highway5G.car[6].udp packetReceived:sum(packetBytes) 624
attr interpolationmode none
attr recordingmode sum(packetBytes)
attr source packetReceived
attr title "packets received, sum(packetBytes)"
scalar Highway5G.car[6].udp packetSent:count 0
attr interpolationmode none
attr recordingmode count
attr source packetSent
attr title "packets sent, count"
scalar Highway5G.car[6].udp packetSent:sum(packetBytes) 0
attr interpolationmode none
attr recordingmode sum(packetBytes)
attr source packetSent
attr title "packets sent, sum(packetBytes)"
scalar Highway5G.car[6].udp passedUpPk:count 13
attr interpolationmode none
attr recordingmode count
attr source packetSentToUpper
attr title "packets passed up, count"
scalar Highway5G.car[6].udp droppedPkWrongPort:count 0
attr interpolationmode none
attr recordingmode count
attr source packetDropReasonIsNoPortFound(packetDropped)
attr title "packets dropped (wrong port), count"
scalar Highway5G.car[6].udp droppedPkBadChecksum:count 0
attr interpolationmode none
attr recordingmode count
attr source packetDropReasonIsIncorrectlyReceived(packetDropped)
attr title "packets dropped (checksum error), count"
par Highway5G.car[6].tcp typename "\"inet.transportlayer.tcp.Tcp\""
par Highway5G.car[6].tcp crcMode "\"declared\""
attr enum declared,computed
par Highway5G.car[6].tcp advertisedWindow 7504
par Highway5G.car[6].tcp delayedAcksEnabled false
par Highway5G.car[6].tcp nagleEnabled true
par Highway5G.car[6].tcp limitedTransmitEnabled false
par Highway5G.car[6].tcp increasedIWEnabled false
par Highway5G.car[6].tcp sackSupport false
par Highway5G.car[6].tcp windowScalingSupport false
par Highway5G.car[6].tcp windowScalingFactor -1
par Highway5G.car[6].tcp timestampSupport false
par Highway5G.car[6].tcp mss 536
par Highway5G.car[6].tcp msl 120s
attr unit s
par Highway5G.car[6].tcp tcpAlgorithmClass "\"TcpReno\""
par Highway5G.car[6].tcp useDataNotification false
par Highway5G.car[6].tcp dupthresh 3
par Highway5G.car[6].tcp initialSsthresh 4294967295
par Highway5G.car[6].tcp stopOperationExtraTime 0s
attr unit s
par Highway5G.car[6].tcp stopOperationTimeout 2s
attr unit s
par Highway5G.car[6].tcp ecnWillingness false
par Highway5G.car[6].tcp dctcpGamma 0.0625
par Highway5G.car[6].app[0] typename "\"simu5g.apps.voip.VoIPReceiver\""
par Highway5G.car[6].app[0] localPort 3000
par Highway5G.car[6].app[0] emodel_Ie_ 5
par Highway5G.car[6].app[0] emodel_Bpl_ 10
par Highway5G.car[6].app[0] emodel_A_ 5
par Highway5G.car[6].app[0] emodel_Ro_ 93.2
par Highway5G.car[6].app[0] playout_delay 0s
attr unit s
par Highway5G.car[6].app[0] dim_buffer 20
par Highway5G.car[6].app[0] sampling_time 0.02s
attr unit s
scalar Highway5G.car[6].app[0] voIPReceivedThroughput:mean 52.688603806046
attr recordingmode mean
attr source voIPReceivedThroughput
attr title "Throughput received at the application level, mean"
attr unit Bps
scalar Highway5G.car[6].app[0] voIPTaildropLoss:mean 0
attr recordingmode mean
attr source voIPTaildropLoss
attr title "VoIP Tail Drop Loss, mean"
attr unit ratio
scalar Highway5G.car[6].app[0] voIPMos:mean 4.409285824
attr recordingmode mean
attr source voIPMos
attr title "VoIP Mos Signal, mean"
attr unit MOS
scalar Highway5G.car[6].app[0] voIPJitter:mean -nan
attr recordingmode mean
attr source voIPJitter
attr title "VoIP Playout Loss, mean"
attr unit s
scalar Highway5G.car[6].app[0] voIPPlayoutLoss:mean 0
attr recordingmode mean
attr source voIPPlayoutLoss
attr title "VoIP Playout Loss, mean"
attr unit ratio
scalar Highway5G.car[6].app[0] voIPPlayoutDelay:mean 0
attr recordingmode mean
attr source voIPPlayoutDelay
attr title "VoIP Playout Delay, mean"
attr unit s
scalar Highway5G.car[6].app[0] voIPFrameDelay:mean 0.005
attr recordingmode mean
attr source voIPFrameDelay
attr title "VoIP Frame Delay, mean"
attr unit s
scalar Highway5G.car[6].app[0] voIPFrameLoss:mean 0
attr recordingmode mean
attr source voIPFrameLoss
attr title "VoIP Frame Loss, mean"
attr unit ratio
par Highway5G.car[6].at typename "\"inet.common.MessageDispatcher\""
par Highway5G.car[6].at displayStringTextFormat "\"processed %p pk (%l)\""
par Highway5G.car[6].at forwardServiceRegistration true
par Highway5G.car[6].at forwardProtocolRegistration true
par Highway5G.car[6].tn typename "\"inet.common.MessageDispatcher\""
par Highway5G.car[6].tn displayStringTextFormat "\"processed %p pk (%l)\""
par Highway5G.car[6].tn forwardServiceRegistration true
par Highway5G.car[6].tn forwardProtocolRegistration true
par Highway5G.car[6].nl typename "\"inet.common.MessageDispatcher\""
par Highway5G.car[6].nl displayStringTextFormat "\"processed %p pk (%l)\""
par Highway5G.car[6].nl forwardServiceRegistration true
par Highway5G.car[6].nl forwardProtocolRegistration true
par Highway5G.car[6] typename "\"simu5g.nodes.cars.NRCar\""
par Highway5G.car[6] numApps 1
par Highway5G.car[6] hasUdp true
par Highway5G.car[6] hasTcp true
par Highway5G.car[6] hasSctp false
par Highway5G.car[6] nodeType "\"UE\""
par Highway5G.car[6] masterId 0
attr mutable ""
par Highway5G.car[6] macNodeId 1031
attr mutable ""
par Highway5G.car[6] macCellId 0
attr mutable ""
par Highway5G.car[6] nicType "\"NRNicUe\""
par Highway5G.car[6] hasIpv4 true
par Highway5G.car[6] hasIpv6 false
par Highway5G.car[6] numEthInterfaces 0
par Highway5G.car[6] extHostAddress "\"\""
par Highway5G.car[6] numLoInterfaces 1
par Highway5G.car[6] numPcapRecorders 0
par Highway5G.car[6] hasRNISupport false
par Highway5G.car[6] nrMasterId 2
attr mutable ""
par Highway5G.car[6] nrMacNodeId 2055
attr mutable ""
par Highway5G.car[6] nrMacCellId 1
attr mutable ""
par Highway5G typename "\"projectpredicthandover.simulations.handover5G.Highway5G\""

