version 3
run VoIP-UL-0-20250707-14:40:08-1607763
attr configname VoIP-UL
attr datetime 20250707-14:40:08
attr datetimef 20250707-144008
attr experiment VoIP-UL
attr inifile omnetpp.ini
attr iterationvars ""
attr iterationvarsd ""
attr iterationvarsf ""
attr measurement ""
attr network Highway5G
attr processid 1607763
attr repetition 0
attr replication #0
attr resultdir results
attr runnumber 0
attr seedset 0
config image-path ../../../../../../../OMNET/omnetpp-6.0.3/workspaces/inet4.5/images:../../../../../../../OMNET/omnetpp-6.0.3/workspaces/simu5g/images:../../../../../../../Dev/veins_new/images
config *.server.numApps 45
config *.server.app[*].typename VoIPReceiver
config *.server.app[*].localPort "3000 + ancestorIndex(0)"
config *.car[*].numApps 1
config *.car[*].app[0].typename VoIPSender
config *.car[*].app[0].destAddress "\"server\""
config *.car[*].app[0].destPort "3000 + ancestorIndex(1)"
config cmdenv-express-mode true
config cmdenv-autoflush true
config image-path ../../images
config network Highway5G
config debug-on-errors false
config print-undisposed false
config sim-time-limit 120s
config **.sctp.**.scalar-recording true
config **.sctp.**.vector-recording true
config **.routingRecorder.enabled false
config *.veinsManager.host "\"localhost\""
config *.veinsManager.port 9999
config *.veinsManager.moduleType "\"simu5g.nodes.cars.NRCar\""
config *.veinsManager.moduleName "\"car\""
config *.veinsManager.launchConfig "xmldoc(\"cenarioB.launchd.xml\")"
config *.veinsManager.updateInterval 0.5s
config *.configurator.addStaticRoutes true
config *.configurator.assignDisjunctSubnetAddresses true
config *.configurator.networkConfiguratorModule "\"IPv4NetworkConfigurator\""
config *.configurator.config "xmldoc(\"demo.xml\")"
config *.configurator.interfaceFilter "\"*\""
config *.physicalEnvironment.config "xmldoc(\"obstaclesB.xml\")"
config *.radioMedium.obstacleLoss.typename IdealObstacleLoss
config *.car[*].mobility.typename projectpredicthandover.veins_inet.VeinsInetMobility
config **.mobility.constraintAreaMaxX 3000m
config **.mobility.constraintAreaMinX 0m
config **.mobility.constraintAreaMaxY 3000m
config **.mobility.constraintAreaMinY 0m
config **.mobility.constraintAreaMinZ 0m
config **.mobility.constraintAreaMaxZ 10m
config *.gNodeB1.mobility.initialX 1843.35m
config *.gNodeB1.mobility.initialY 2161.25m
config *.gNodeB1.mobility.initialZ 0m
config *.gNodeB1.mobility.constraintAreaMinX 1843.35m
config *.gNodeB1.mobility.constraintAreaMaxX 1843.35m
config *.gNodeB1.mobility.constraintAreaMinY 2161.25m
config *.gNodeB1.mobility.constraintAreaMaxY 2161.25m
config *.gNodeB1.mobility.constraintAreaMinZ 0m
config *.gNodeB1.mobility.constraintAreaMaxZ 0m
config *.gNodeB2.mobility.initialX 1000.35m
config *.gNodeB2.mobility.initialY 2161.25m
config *.gNodeB2.mobility.initialZ 0m
config *.gNodeB2.mobility.constraintAreaMinX 1000.35m
config *.gNodeB2.mobility.constraintAreaMaxX 1000.35m
config *.gNodeB2.mobility.constraintAreaMinY 2161.25m
config *.gNodeB2.mobility.constraintAreaMaxY 2161.25m
config *.gNodeB2.mobility.constraintAreaMinZ 0m
config *.gNodeB2.mobility.constraintAreaMaxZ 0m
config *.gNodeB3.mobility.initialX 1500m
config *.gNodeB3.mobility.initialY 1875m
config *.gNodeB3.mobility.initialZ 0m
config *.gNodeB3.mobility.constraintAreaMinX 1500m
config *.gNodeB3.mobility.constraintAreaMaxX 1500m
config *.gNodeB3.mobility.constraintAreaMinY 1875m
config *.gNodeB3.mobility.constraintAreaMaxY 1875m
config *.gNodeB3.mobility.constraintAreaMinZ 0m
config *.gNodeB3.mobility.constraintAreaMaxZ 0m
config *.gNodeB4.mobility.initialX 1070m
config *.gNodeB4.mobility.initialY 2569m
config *.gNodeB4.mobility.initialZ 0m
config *.gNodeB4.mobility.constraintAreaMinX 1070m
config *.gNodeB4.mobility.constraintAreaMaxX 1070m
config *.gNodeB4.mobility.constraintAreaMinY 2569m
config *.gNodeB4.mobility.constraintAreaMaxY 2569m
config *.gNodeB4.mobility.constraintAreaMinZ 0m
config *.gNodeB4.mobility.constraintAreaMaxZ 0m
config **.numBands 25
config **.ueTxPower 20
config **.eNodeBTxPower 40
config *.car[*].cellularNic.nrPhy.dynamicCellAssociation true
config *.car[*].masterId 0
config *.car[*].macCellId 0
config *.car[*].nrMasterId 1
config *.car[*].nrMacCellId 1
config *.car[*].cellularNic.nrPhy.handoverThreshold -4
config **.gNodeB1.macCellId 1
config **.gNodeB1.macNodeId 1
config **.gNodeB2.macCellId 2
config **.gNodeB2.macNodeId 2
config **.gNodeB3.macCellId 3
config **.gNodeB3.macNodeId 3
config **.gNodeB4.macCellId 4
config **.gNodeB4.macNodeId 4
config *.car[*].cellularNic.nrMac.dynamicCellAssociation true
config *.car[*].cellularNic.nrMac.enableHandover true
config *.car[*].cellularNic.nrPhy.enableHandover true
config *.gNodeB*.cellularNic.phy.enableHandover true
config *.gNodeB*.cellularNic.nrMac.enableHandover true
config *.gNodeB*.cellularNic.phy.handoverLatency 5ms
config *.gNodeB*.cellularNic.nrMac.handoverLatency 5ms
config *.gNodeB*.cellInfo.broadcastMessageInterval 1s
config *.gNodeB*.x2App[*].server.localPort "5000 + ancestorIndex(1)"
config *.gNodeB*.numX2Apps 2
config *.gNodeB1.x2App[0].client.connectAddress "\"gNodeB2%x2ppp0\""
config *.gNodeB1.x2App[1].client.connectAddress "\"gNodeB3%x2ppp0\""
config *.gNodeB2.x2App[0].client.connectAddress "\"gNodeB1%x2ppp0\""
config *.gNodeB2.x2App[1].client.connectAddress "\"gNodeB4%x2ppp0\""
config *.gNodeB3.x2App[0].client.connectAddress "\"gNodeB1%x2ppp0\""
config *.gNodeB3.x2App[1].client.connectAddress "\"gNodeB4%x2ppp0\""
config *.gNodeB4.x2App[0].client.connectAddress "\"gNodeB3%x2ppp0\""
config *.gNodeB4.x2App[1].client.connectAddress "\"gNodeB2%x2ppp0\""
config **.sctp.nagleEnabled false
config **.sctp.enableHeartbeats false
config *.visualizer.*.obstacleLossVisualizer.displayIntersections true
config *.visualizer.*.obstacleLossVisualizer.displayFaceNormalVectors true
config *.visualizer.*.obstacleLossVisualizer.intersectionLineColor "\"yellow\""
config *.visualizer.*.mediumVisualizer.signalPropagationAnimationSpeed 500/3e8
config *.visualizer.*.mediumVisualizer.signalTransmissionAnimationSpeed 50000/3e8
config *.visualizer.*.mediumVisualizer.displaySignals true
config *.visualizer.canvasVisualizer.mediumVisualizer.displaySignalDepartures false
config *.visualizer.canvasVisualizer.mediumVisualizer.displaySignalArrivals false
config *.visualizer.*.physicalLinkVisualizer.displayLinks true
config **.scalar-recording true
config **.vector-recording true
config **.mobility.tracemobility true
config **.car[*].mobility.posX.vector-recording true
config **.car[*].mobility.posY.vector-recording true
config **.car[*].mobility.posZ.vector-recording true
config **.car[*].mobility.speed.vector-recording true
config **.car[*].mobility.lastPosition.vector-recording true
config **.car[*].app[*].voIPGeneratedThroughput.vector-recording true
config **.car[*].cellularNic.nrPhy.servingCell.vector-recording true
config **.car[*].cellularNic.nrMac.macDelayDL.vector-recording true
config **.car[*].cellularNic.nrMac.macDelayUL.vector-recording true
config **.car[*].cellularNic.nrMac.macThroughputDL.vector-recording true
config **.car[*].cellularNic.nrMac.macThroughputUL.vector-recording true
config **.car[*].cellularNic.nrMac.macCellPacketLossDL.vector-recording true
config **.car[*].cellularNic.nrMac.macCellPacketLossUL.vector-recording true
config **.car[*].cellularNic.nrMac.macBufferOverflowDL.vector-recording true
config **.car[*].cellularNic.nrMac.macBufferOverflowUL.vector-recording true
config **.car[*].cellularNic.nrMac.harqErrorRateDL.vector-recording true
config **.car[*].cellularNic.nrMac.harqErrorRateUL.vector-recording true
config **.car[*].cellularNic.nrMac.harqTxAttemptsDL.vector-recording true
config **.car[*].cellularNic.nrMac.harqTxAttemptsUL.vector-recording true
config **.car[*].cellularNic.nrMac.receivedPacketFromUpperLayer.vector-recording true
config **.car[*].cellularNic.nrMac.receivedPacketFromLowerLayer.vector-recording true
config **.car[*].cellularNic.nrMac.sentPacketToUpperLayer.vector-recording true
config **.car[*].cellularNic.nrMac.sentPacketToLowerLayer.vector-recording true
config **.car[*].cellularNic.nrMac.measuredItbs.vector-recording true
config **.car[*].cellularNic.nrMac.macDelayD2D.vector-recording true
config **.car[*].cellularNic.nrMac.macThroughputD2D.vector-recording true
config **.car[*].cellularNic.nrMac.rcvdD2DModeSwitchNotification.vector-recording true
config **.car[*].cellularNic.nrPhy.averageCqiDL.vector-recording true
config **.car[*].cellularNic.nrPhy.averageCqiUL.vector-recording true

scalar Highway5G.gNodeB1.x2App[0].client ums 1452
scalar Highway5G.gNodeB1.x2App[1].client ums 1452
scalar Highway5G.gNodeB2.x2App[0].client ums 1452
scalar Highway5G.gNodeB2.x2App[1].client ums 1452
scalar Highway5G.gNodeB3.x2App[0].client ums 1452
scalar Highway5G.gNodeB3.x2App[1].client ums 1452
scalar Highway5G.gNodeB4.x2App[0].client ums 1452
scalar Highway5G.gNodeB4.x2App[1].client ums 1452
par Highway5G.car[0].interfaceTable typename "\"inet.networklayer.common.InterfaceTable\""
par Highway5G.car[0].interfaceTable displayAddresses false
par Highway5G.car[0].mobility typename "\"projectpredicthandover.veins_inet.VeinsInetMobility\""
par Highway5G.car[0].mobility subjectModule "\"^\""
par Highway5G.car[0].mobility coordinateSystemModule "\"\""
par Highway5G.car[0].mobility displayStringTextFormat "\"p: %p\\nv: %v\""
attr mutable ""
par Highway5G.car[0].mobility updateDisplayString true
par Highway5G.car[0].mobility constraintAreaMinX 0m
attr unit m
par Highway5G.car[0].mobility constraintAreaMinY 0m
attr unit m
par Highway5G.car[0].mobility constraintAreaMinZ 0m
attr unit m
par Highway5G.car[0].mobility constraintAreaMaxX 3000m
attr unit m
par Highway5G.car[0].mobility constraintAreaMaxY 3000m
attr unit m
par Highway5G.car[0].mobility constraintAreaMaxZ 10m
attr unit m
par Highway5G.car[0].mobility initFromDisplayString true
par Highway5G.car[0].lo[0].upperLayerIn.channel typename "\"ned.IdealChannel\""
par Highway5G.car[0].lo[0].lo.upperLayerOut.channel typename "\"ned.IdealChannel\""
par Highway5G.car[0].lo[0].lo typename "\"inet.linklayer.loopback.Loopback\""
par Highway5G.car[0].lo[0].lo interfaceTableModule "\"Highway5G.car[0].interfaceTable\""
par Highway5G.car[0].lo[0].lo mtu 4470B
attr unit B
scalar Highway5G.car[0].lo[0].lo rcvdPkFromHl:count 0
attr interpolationmode none
attr recordingmode count
attr source packetReceivedFromUpper
attr title "packets received from higher layer, count"
scalar Highway5G.car[0].lo[0].lo rcvdPkFromHl:sum(packetBytes) 0
attr interpolationmode none
attr recordingmode sum(packetBytes)
attr source packetReceivedFromUpper
attr title "packets received from higher layer, sum(packetBytes)"
scalar Highway5G.car[0].lo[0].lo passedUpPk:count 0
attr interpolationmode none
attr recordingmode count
attr source packetSentToUpper
attr title "packets passed to higher layer, count"
scalar Highway5G.car[0].lo[0].lo passedUpPk:sum(packetBytes) 0
attr interpolationmode none
attr recordingmode sum(packetBytes)
attr source packetSentToUpper
attr title "packets passed to higher layer, sum(packetBytes)"
par Highway5G.car[0].lo[0] typename "\"inet.linklayer.loopback.LoopbackInterface\""
par Highway5G.car[0].lo[0] displayStringTextFormat "\"%a (%i)\\n%m\""
par Highway5G.car[0].lo[0] recordPcap false
par Highway5G.car[0].lo[0] numPcapRecorders 0
par Highway5G.car[0].lo[0] interfaceTableModule "\"Highway5G.car[0].interfaceTable\""
scalar Highway5G.car[0].lo[0] packetDropInterfaceDown:count 0
attr interpolationmode none
attr recordingmode count
attr source packetDropReasonIsInterfaceDown(packetDropped)
attr title "packet drops: interface down, count"
scalar Highway5G.car[0].lo[0] packetDropInterfaceDown:sum(packetBytes) 0
attr interpolationmode none
attr recordingmode sum(packetBytes)
attr source packetDropReasonIsInterfaceDown(packetDropped)
attr title "packet drops: interface down, sum(packetBytes)"
scalar Highway5G.car[0].lo[0] packetDropNoCarrier:count 0
attr interpolationmode none
attr recordingmode count
attr source packetDropReasonIsNoCarrier(packetDropped)
attr title "packet drops: no carrier, count"
scalar Highway5G.car[0].lo[0] packetDropNoCarrier:sum(packetBytes) 0
attr interpolationmode none
attr recordingmode sum(packetBytes)
attr source packetDropReasonIsNoCarrier(packetDropped)
attr title "packet drops: no carrier, sum(packetBytes)"
par Highway5G.car[0].cellularNic.ip2nic.upperLayerOut.channel typename "\"ned.DelayChannel\""
par Highway5G.car[0].cellularNic.ip2nic.upperLayerOut.channel disabled false
attr mutable ""
par Highway5G.car[0].cellularNic.ip2nic.upperLayerOut.channel delay 0s
attr mutable ""
attr unit s
par Highway5G.car[0].cellularNic.upperLayerIn.channel typename "\"ned.DelayChannel\""
par Highway5G.car[0].cellularNic.upperLayerIn.channel disabled false
attr mutable ""
par Highway5G.car[0].cellularNic.upperLayerIn.channel delay 0s
attr mutable ""
attr unit s
par Highway5G.car[0].cellularNic.ip2nic typename "\"simu5g.stack.ip2nic.IP2Nic\""
par Highway5G.car[0].cellularNic.ip2nic nodeType "\"UE\""
par Highway5G.car[0].cellularNic.ip2nic interfaceTableModule "\"Highway5G.car[0].interfaceTable\""
par Highway5G.car[0].cellularNic.ip2nic interfaceName "\"cellular\""
par Highway5G.car[0].cellularNic.ip2nic routingTableModule "\"Highway5G.car[0].ipv4.routingTable\""
par "Highway5G.car[0].cellularNic.pdcpRrc.NRTxPdcpEntity Lcid: 1" typename "\"simu5g.stack.pdcp_rrc.NRTxPdcpEntity\""
par Highway5G.car[0].cellularNic.pdcpRrc typename "\"simu5g.stack.pdcp_rrc.NRPdcpRrcUe\""
par Highway5G.car[0].cellularNic.pdcpRrc headerCompressedSize -1B
attr unit B
par Highway5G.car[0].cellularNic.pdcpRrc conversationalRlc 1
par Highway5G.car[0].cellularNic.pdcpRrc streamingRlc 1
par Highway5G.car[0].cellularNic.pdcpRrc interactiveRlc 1
par Highway5G.car[0].cellularNic.pdcpRrc backgroundRlc 1
scalar Highway5G.car[0].cellularNic.pdcpRrc sentPacketToLowerLayer:count 1582
attr interpolationmode none
attr recordingmode count
attr source sentPacketToLowerLayer
scalar Highway5G.car[0].cellularNic.pdcpRrc sentPacketToLowerLayer:sum(packetBytes) 109158
attr interpolationmode none
attr recordingmode sum(packetBytes)
attr source sentPacketToLowerLayer
scalar Highway5G.car[0].cellularNic.pdcpRrc sentPacketToUpperLayer:count 0
attr interpolationmode none
attr recordingmode count
attr source sentPacketToUpperLayer
scalar Highway5G.car[0].cellularNic.pdcpRrc sentPacketToUpperLayer:sum(packetBytes) 0
attr interpolationmode none
attr recordingmode sum(packetBytes)
attr source sentPacketToUpperLayer
scalar Highway5G.car[0].cellularNic.pdcpRrc receivedPacketFromLowerLayer:count 0
attr interpolationmode none
attr recordingmode count
attr source receivedPacketFromLowerLayer
scalar Highway5G.car[0].cellularNic.pdcpRrc receivedPacketFromLowerLayer:sum(packetBytes) 0
attr interpolationmode none
attr recordingmode sum(packetBytes)
attr source receivedPacketFromLowerLayer
scalar Highway5G.car[0].cellularNic.pdcpRrc receivedPacketFromUpperLayer:count 1582
attr interpolationmode none
attr recordingmode count
attr source receivedPacketFromUpperLayer
scalar Highway5G.car[0].cellularNic.pdcpRrc receivedPacketFromUpperLayer:sum(packetBytes) 107576
attr interpolationmode none
attr recordingmode sum(packetBytes)
attr source receivedPacketFromUpperLayer
par Highway5G.car[0].cellularNic.rlc.tm typename "\"simu5g.stack.rlc.LteRlcTm\""
par Highway5G.car[0].cellularNic.rlc.tm queueSize 2097152B
attr unit B
scalar Highway5G.car[0].cellularNic.rlc.tm rlcPacketLossDl:mean -nan
attr recordingmode mean
attr source rlcPacketLossDl
attr title "rlc Packet Loss, mean"
attr unit ""
scalar Highway5G.car[0].cellularNic.rlc.tm rlcPacketLossDl:sum 0
attr recordingmode sum
attr source rlcPacketLossDl
attr title "rlc Packet Loss, sum"
attr unit ""
scalar Highway5G.car[0].cellularNic.rlc.tm rlcPacketLossUl:mean -nan
attr recordingmode mean
attr source rlcPacketLossUl
attr title "rlc Packet Loss, mean"
attr unit ""
scalar Highway5G.car[0].cellularNic.rlc.tm rlcPacketLossUl:sum 0
attr recordingmode sum
attr source rlcPacketLossUl
attr title "rlc Packet Loss, sum"
attr unit ""
scalar Highway5G.car[0].cellularNic.rlc.tm sentPacketToLowerLayer:count 0
attr interpolationmode none
attr recordingmode count
attr source sentPacketToLowerLayer
scalar Highway5G.car[0].cellularNic.rlc.tm sentPacketToLowerLayer:sum(packetBytes) 0
attr interpolationmode none
attr recordingmode sum(packetBytes)
attr source sentPacketToLowerLayer
scalar Highway5G.car[0].cellularNic.rlc.tm sentPacketToUpperLayer:count 0
attr interpolationmode none
attr recordingmode count
attr source sentPacketToUpperLayer
scalar Highway5G.car[0].cellularNic.rlc.tm sentPacketToUpperLayer:sum(packetBytes) 0
attr interpolationmode none
attr recordingmode sum(packetBytes)
attr source sentPacketToUpperLayer
scalar Highway5G.car[0].cellularNic.rlc.tm receivedPacketFromLowerLayer:count 0
attr interpolationmode none
attr recordingmode count
attr source receivedPacketFromLowerLayer
scalar Highway5G.car[0].cellularNic.rlc.tm receivedPacketFromLowerLayer:sum(packetBytes) 0
attr interpolationmode none
attr recordingmode sum(packetBytes)
attr source receivedPacketFromLowerLayer
scalar Highway5G.car[0].cellularNic.rlc.tm receivedPacketFromUpperLayer:count 0
attr interpolationmode none
attr recordingmode count
attr source receivedPacketFromUpperLayer
scalar Highway5G.car[0].cellularNic.rlc.tm receivedPacketFromUpperLayer:sum(packetBytes) 0
attr interpolationmode none
attr recordingmode sum(packetBytes)
attr source receivedPacketFromUpperLayer
par Highway5G.car[0].cellularNic.rlc.um typename "\"simu5g.stack.rlc.LteRlcUmD2D\""
par Highway5G.car[0].cellularNic.rlc.um queueSize 2097152B
attr unit B
par Highway5G.car[0].cellularNic.rlc.um mapAllLcidsToSingleBearer false
scalar Highway5G.car[0].cellularNic.rlc.um rlcPduPacketLossD2D:mean -nan
attr recordingmode mean
attr source rlcPduPacketLossD2D
attr title "rlc Packet Loss, mean"
attr unit ""
scalar Highway5G.car[0].cellularNic.rlc.um rlcPduThroughputD2D:mean -nan
attr recordingmode mean
attr source rlcPduThroughputD2D
attr title "Throughput at the rlc layer D2D, mean"
attr unit Bps
scalar Highway5G.car[0].cellularNic.rlc.um rlcPduDelayD2D:mean -nan
attr recordingmode mean
attr source rlcPduDelayD2D
attr title "Delay at the rlc layer D2D, mean"
attr unit s
scalar Highway5G.car[0].cellularNic.rlc.um rlcCellThroughputD2D:mean -nan
attr recordingmode mean
attr source rlcCellThroughputD2D
attr title "Cell Throughput at the rlc layer D2D, mean"
attr unit Bps
scalar Highway5G.car[0].cellularNic.rlc.um rlcCellPacketLossD2D:mean -nan
attr recordingmode mean
attr source rlcCellPacketLossD2D
attr title "rlc Cell Packet Loss, mean"
attr unit ""
scalar Highway5G.car[0].cellularNic.rlc.um rlcPacketLossD2D:mean -nan
attr recordingmode mean
attr source rlcPacketLossD2D
attr title "rlc Packet Loss, mean"
attr unit ""
scalar Highway5G.car[0].cellularNic.rlc.um rlcThroughputD2D:mean -nan
attr recordingmode mean
attr source rlcThroughputD2D
attr title "Throughput at the rlc layer D2D, mean"
attr unit Bps
scalar Highway5G.car[0].cellularNic.rlc.um rlcDelayD2D:mean -nan
attr recordingmode mean
attr source rlcDelayD2D
attr title "Delay at the rlc layer D2D, mean"
attr unit s
scalar Highway5G.car[0].cellularNic.rlc.um rlcPduPacketLossDl:mean -nan
attr recordingmode mean
attr source rlcPduPacketLossDl
attr title "rlc Packet Loss, mean"
attr unit ""
scalar Highway5G.car[0].cellularNic.rlc.um rlcPduPacketLossUl:mean -nan
attr recordingmode mean
attr source rlcPduPacketLossUl
attr title "rlc Packet Loss, mean"
attr unit ""
scalar Highway5G.car[0].cellularNic.rlc.um rlcPduThroughputUl:mean -nan
attr recordingmode mean
attr source rlcPduThroughputUl
attr title "Throughput at the rlc layer UL, mean"
attr unit Bps
scalar Highway5G.car[0].cellularNic.rlc.um rlcPduDelayUl:mean -nan
attr recordingmode mean
attr source rlcPduDelayUl
attr title "Delay at the rlc layer UL, mean"
attr unit s
scalar Highway5G.car[0].cellularNic.rlc.um rlcPduThroughputDl:mean -nan
attr recordingmode mean
attr source rlcPduThroughputDl
attr title "Throughput at the rlc layer DL, mean"
attr unit Bps
scalar Highway5G.car[0].cellularNic.rlc.um rlcPduDelayDl:mean -nan
attr recordingmode mean
attr source rlcPduDelayDl
attr title "Delay at the rlc layer UL, mean"
attr unit s
scalar Highway5G.car[0].cellularNic.rlc.um rlcCellPacketLossUl:mean -nan
attr recordingmode mean
attr source rlcCellPacketLossUl
attr title "rlc Cell Packet Loss, mean"
attr unit ""
scalar Highway5G.car[0].cellularNic.rlc.um rlcCellPacketLossDl:mean -nan
attr recordingmode mean
attr source rlcCellPacketLossDl
attr title "rlc Cell Packet Loss, mean"
attr unit ""
scalar Highway5G.car[0].cellularNic.rlc.um rlcCellThroughputDl:mean -nan
attr recordingmode mean
attr source rlcCellThroughputDl
attr title "Cell Throughput at the rlc layer DL, mean"
attr unit Bps
scalar Highway5G.car[0].cellularNic.rlc.um rlcCellThroughputUl:mean -nan
attr recordingmode mean
attr source rlcCellThroughputUl
attr title "Cell Throughput at the rlc layer UL, mean"
attr unit Bps
scalar Highway5G.car[0].cellularNic.rlc.um rlcPacketLossTotal:mean -nan
attr recordingmode mean
attr source rlcPacketLossTotal
attr title "rlc Packet Loss, mean"
attr unit ""
scalar Highway5G.car[0].cellularNic.rlc.um rlcThroughputUl:mean -nan
attr recordingmode mean
attr source rlcThroughputUl
attr title "Throughput at the rlc layer UL, mean"
attr unit Bps
scalar Highway5G.car[0].cellularNic.rlc.um rlcDelayUl:mean -nan
attr recordingmode mean
attr source rlcDelayUl
attr title "Delay at the rlc layer UL, mean"
attr unit s
scalar Highway5G.car[0].cellularNic.rlc.um rlcThroughputDl:mean -nan
attr recordingmode mean
attr source rlcThroughputDl
attr title "Throughput at the rlc layer DL, mean"
attr unit Bps
scalar Highway5G.car[0].cellularNic.rlc.um rlcDelayDl:mean -nan
attr recordingmode mean
attr source rlcDelayDl
attr title "Delay at the rlc layer DL, mean"
attr unit s
scalar Highway5G.car[0].cellularNic.rlc.um rlcPacketLossDl:mean -nan
attr recordingmode mean
attr source rlcPacketLossDl
attr title "rlc Packet Loss, mean"
attr unit ""
scalar Highway5G.car[0].cellularNic.rlc.um rlcPacketLossDl:sum 0
attr recordingmode sum
attr source rlcPacketLossDl
attr title "rlc Packet Loss, sum"
attr unit ""
scalar Highway5G.car[0].cellularNic.rlc.um rlcPacketLossUl:mean -nan
attr recordingmode mean
attr source rlcPacketLossUl
attr title "rlc Packet Loss, mean"
attr unit ""
scalar Highway5G.car[0].cellularNic.rlc.um rlcPacketLossUl:sum 0
attr recordingmode sum
attr source rlcPacketLossUl
attr title "rlc Packet Loss, sum"
attr unit ""
scalar Highway5G.car[0].cellularNic.rlc.um sentPacketToLowerLayer:count 0
attr interpolationmode none
attr recordingmode count
attr source sentPacketToLowerLayer
scalar Highway5G.car[0].cellularNic.rlc.um sentPacketToLowerLayer:sum(packetBytes) 0
attr interpolationmode none
attr recordingmode sum(packetBytes)
attr source sentPacketToLowerLayer
scalar Highway5G.car[0].cellularNic.rlc.um sentPacketToUpperLayer:count 0
attr interpolationmode none
attr recordingmode count
attr source sentPacketToUpperLayer
scalar Highway5G.car[0].cellularNic.rlc.um sentPacketToUpperLayer:sum(packetBytes) 0
attr interpolationmode none
attr recordingmode sum(packetBytes)
attr source sentPacketToUpperLayer
scalar Highway5G.car[0].cellularNic.rlc.um receivedPacketFromLowerLayer:count 0
attr interpolationmode none
attr recordingmode count
attr source receivedPacketFromLowerLayer
scalar Highway5G.car[0].cellularNic.rlc.um receivedPacketFromLowerLayer:sum(packetBytes) 0
attr interpolationmode none
attr recordingmode sum(packetBytes)
attr source receivedPacketFromLowerLayer
scalar Highway5G.car[0].cellularNic.rlc.um receivedPacketFromUpperLayer:count 0
attr interpolationmode none
attr recordingmode count
attr source receivedPacketFromUpperLayer
scalar Highway5G.car[0].cellularNic.rlc.um receivedPacketFromUpperLayer:sum(packetBytes) 0
attr interpolationmode none
attr recordingmode sum(packetBytes)
attr source receivedPacketFromUpperLayer
par Highway5G.car[0].cellularNic.rlc.am typename "\"simu5g.stack.rlc.LteRlcAm\""
scalar Highway5G.car[0].cellularNic.rlc.am rlcPduPacketLossDl:mean -nan
attr recordingmode mean
attr source rlcPduPacketLossDl
attr title "rlc Packet Loss, mean"
attr unit ""
scalar Highway5G.car[0].cellularNic.rlc.am rlcPduPacketLossUl:mean -nan
attr recordingmode mean
attr source rlcPduPacketLossUl
attr title "rlc Packet Loss, mean"
attr unit ""
scalar Highway5G.car[0].cellularNic.rlc.am rlcPduThroughputUl:mean -nan
attr recordingmode mean
attr source rlcPduThroughputUl
attr title "Throughput at the rlc layer UL, mean"
attr unit Bps
scalar Highway5G.car[0].cellularNic.rlc.am rlcPduDelayUl:mean -nan
attr recordingmode mean
attr source rlcPduDelayUl
attr title "Delay at the rlc layer UL, mean"
attr unit s
scalar Highway5G.car[0].cellularNic.rlc.am rlcPduThroughputDl:mean -nan
attr recordingmode mean
attr source rlcPduThroughputDl
attr title "Throughput at the rlc layer DL, mean"
attr unit Bps
scalar Highway5G.car[0].cellularNic.rlc.am rlcPduDelayDl:mean -nan
attr recordingmode mean
attr source rlcPduDelayDl
attr title "Delay at the rlc layer UL, mean"
attr unit s
scalar Highway5G.car[0].cellularNic.rlc.am rlcCellPacketLossUl:mean -nan
attr recordingmode mean
attr source rlcCellPacketLossUl
attr title "rlc Cell Packet Loss, mean"
attr unit ""
scalar Highway5G.car[0].cellularNic.rlc.am rlcCellPacketLossDl:mean -nan
attr recordingmode mean
attr source rlcCellPacketLossDl
attr title "rlc Cell Packet Loss, mean"
attr unit ""
scalar Highway5G.car[0].cellularNic.rlc.am rlcCellThroughputDl:mean -nan
attr recordingmode mean
attr source rlcCellThroughputDl
attr title "Cell Throughput at the rlc layer DL, mean"
attr unit Bps
scalar Highway5G.car[0].cellularNic.rlc.am rlcCellThroughputUl:mean -nan
attr recordingmode mean
attr source rlcCellThroughputUl
attr title "Cell Throughput at the rlc layer UL, mean"
attr unit Bps
scalar Highway5G.car[0].cellularNic.rlc.am rlcPacketLossTotal:mean -nan
attr recordingmode mean
attr source rlcPacketLossTotal
attr title "rlc Packet Loss, mean"
attr unit ""
scalar Highway5G.car[0].cellularNic.rlc.am rlcThroughputUl:mean -nan
attr recordingmode mean
attr source rlcThroughputUl
attr title "Throughput at the rlc layer UL, mean"
attr unit Bps
scalar Highway5G.car[0].cellularNic.rlc.am rlcDelayUl:mean -nan
attr recordingmode mean
attr source rlcDelayUl
attr title "Delay at the rlc layer UL, mean"
attr unit s
scalar Highway5G.car[0].cellularNic.rlc.am rlcThroughputDl:mean -nan
attr recordingmode mean
attr source rlcThroughputDl
attr title "Throughput at the rlc layer DL, mean"
attr unit Bps
scalar Highway5G.car[0].cellularNic.rlc.am rlcDelayDl:mean -nan
attr recordingmode mean
attr source rlcDelayDl
attr title "Delay at the rlc layer UL, mean"
attr unit s
scalar Highway5G.car[0].cellularNic.rlc.am rlcPacketLossDl:mean -nan
attr recordingmode mean
attr source rlcPacketLossDl
attr title "rlc Packet Loss, mean"
attr unit ""
scalar Highway5G.car[0].cellularNic.rlc.am rlcPacketLossUl:mean -nan
attr recordingmode mean
attr source rlcPacketLossUl
attr title "rlc Packet Loss, mean"
attr unit ""
par Highway5G.car[0].cellularNic.rlc.mux typename "\"simu5g.stack.rlc.LteRlcMux\""
par Highway5G.car[0].cellularNic.rlc typename "\"simu5g.stack.rlc.LteRlc\""
par Highway5G.car[0].cellularNic.rlc LteRlcUmType "\"LteRlcUm\""
par Highway5G.car[0].cellularNic.rlc d2dCapable true
par Highway5G.car[0].cellularNic.rlc umType "\"LteRlcUmD2D\""
par Highway5G.car[0].cellularNic.mac typename "\"simu5g.stack.mac.LteMacUeD2D\""
par Highway5G.car[0].cellularNic.mac interfaceTableModule "\"Highway5G.car[0].interfaceTable\""
par Highway5G.car[0].cellularNic.mac interfaceName "\"cellular\""
par Highway5G.car[0].cellularNic.mac queueSize 2097152B
attr unit B
par Highway5G.car[0].cellularNic.mac muMimo true
par Highway5G.car[0].cellularNic.mac harqProcesses 8
par Highway5G.car[0].cellularNic.mac maxHarqRtx 3
par Highway5G.car[0].cellularNic.mac harqFbEvaluationTimer 4
par Highway5G.car[0].cellularNic.mac statDisplay false
par Highway5G.car[0].cellularNic.mac usePreconfiguredTxParams false
par Highway5G.car[0].cellularNic.mac d2dCqi 7
scalar Highway5G.car[0].cellularNic.mac rcvdD2DModeSwitchNotification:count 0
attr recordingmode count
attr source rcvdD2DModeSwitchNotification
attr title "Reception of mode switch notification (tx side), count"
attr unit ""
scalar Highway5G.car[0].cellularNic.mac macThroughputD2D:mean -nan
attr recordingmode mean
attr source macThroughputD2D
attr title "Throughput at the MAC layer D2D, mean"
attr unit Bps
scalar Highway5G.car[0].cellularNic.mac macDelayD2D:mean -nan
attr recordingmode mean
attr source macDelayD2D
attr title "Delay at the MAC layer D2D, mean"
attr unit s
scalar Highway5G.car[0].cellularNic.mac macPacketLossD2D:mean -nan
attr recordingmode mean
attr source macPacketLossD2D
attr title "Mac Packet Loss D2D, mean"
attr unit ""
scalar Highway5G.car[0].cellularNic.mac harqErrorRateD2D:mean -nan
attr recordingmode mean
attr source harqErrorRateD2D
attr title "Harq Error Rate D2D, mean"
attr unit ""
scalar Highway5G.car[0].cellularNic.mac harqErrorRate_4th_D2D:mean -nan
attr recordingmode mean
attr source harqErrorRate_4th_D2D
attr title "Harq Error Rate D2D (4th Tx), mean"
attr unit ""
scalar Highway5G.car[0].cellularNic.mac harqErrorRate_3rd_D2D:mean -nan
attr recordingmode mean
attr source harqErrorRate_3rd_D2D
attr title "Harq Error Rate D2D (3rd Tx), mean"
attr unit ""
scalar Highway5G.car[0].cellularNic.mac harqErrorRate_2nd_D2D:mean -nan
attr recordingmode mean
attr source harqErrorRate_2nd_D2D
attr title "Harq Error Rate D2D (2nd Tx), mean"
attr unit ""
scalar Highway5G.car[0].cellularNic.mac harqErrorRate_1st_D2D:mean -nan
attr recordingmode mean
attr source harqErrorRate_1st_D2D
attr title "Harq Error Rate D2D (1st Tx), mean"
attr unit ""
scalar Highway5G.car[0].cellularNic.mac measuredItbs:mean -nan
attr recordingmode mean
attr source measuredItbs
attr title "TBS index, mean"
attr unit ""
scalar Highway5G.car[0].cellularNic.mac harqErrorRate_4th_Dl:mean -nan
attr recordingmode mean
attr source harqErrorRate_4th_Dl
attr title "Harq Error Rate Dl (4th tx), mean"
attr unit ""
scalar Highway5G.car[0].cellularNic.mac harqErrorRate_4th_Ul:mean -nan
attr recordingmode mean
attr source harqErrorRate_4th_Ul
attr title "Harq Error Rate Ul (4th tx), mean"
attr unit ""
scalar Highway5G.car[0].cellularNic.mac harqErrorRate_3rd_Dl:mean -nan
attr recordingmode mean
attr source harqErrorRate_3rd_Dl
attr title "Harq Error Rate Dl (3rd tx), mean"
attr unit ""
scalar Highway5G.car[0].cellularNic.mac harqErrorRate_3rd_Ul:mean -nan
attr recordingmode mean
attr source harqErrorRate_3rd_Ul
attr title "Harq Error Rate Ul (3rd tx), mean"
attr unit ""
scalar Highway5G.car[0].cellularNic.mac harqErrorRate_2nd_Dl:mean -nan
attr recordingmode mean
attr source harqErrorRate_2nd_Dl
attr title "Harq Error Rate Dl (2nd tx), mean"
attr unit ""
scalar Highway5G.car[0].cellularNic.mac harqErrorRate_2nd_Ul:mean -nan
attr recordingmode mean
attr source harqErrorRate_2nd_Ul
attr title "Harq Error Rate Ul (2nd tx), mean"
attr unit ""
scalar Highway5G.car[0].cellularNic.mac harqErrorRate_1st_Dl:mean -nan
attr recordingmode mean
attr source harqErrorRate_1st_Dl
attr title "Harq Error Rate Dl (1st tx), mean"
attr unit ""
scalar Highway5G.car[0].cellularNic.mac harqErrorRate_1st_Ul:mean -nan
attr recordingmode mean
attr source harqErrorRate_1st_Ul
attr title "Harq Error Rate Ul (1st tx), mean"
attr unit ""
scalar Highway5G.car[0].cellularNic.mac harqTxAttemptsUl:mean -nan
attr recordingmode mean
attr source harqTxAttemptsUl
attr title "Harq Tx Attempts Ul, mean"
attr unit ""
scalar Highway5G.car[0].cellularNic.mac harqTxAttemptsDl:mean -nan
attr recordingmode mean
attr source harqTxAttemptsDl
attr title "Harq Tx Attempts Dl, mean"
attr unit ""
scalar Highway5G.car[0].cellularNic.mac harqErrorRateDl:mean -nan
attr recordingmode mean
attr source harqErrorRateDl
attr title "Harq Error Rate Dl, mean"
attr unit ""
scalar Highway5G.car[0].cellularNic.mac harqErrorRateUl:mean -nan
attr recordingmode mean
attr source harqErrorRateUl
attr title "Harq Error Rate Ul, mean"
attr unit ""
scalar Highway5G.car[0].cellularNic.mac macBufferOverFlowD2D:mean -nan
attr recordingmode mean
attr source macBufferOverFlowD2D
attr title "Mac buffer overflow as function of time, mean"
attr unit Byte/s
scalar Highway5G.car[0].cellularNic.mac macBufferOverFlowUl:mean -nan
attr recordingmode mean
attr source macBufferOverFlowUl
attr title "Mac buffer overflow as function of time, mean"
attr unit Byte/s
scalar Highway5G.car[0].cellularNic.mac macBufferOverFlowDl:mean -nan
attr recordingmode mean
attr source macBufferOverFlowDl
attr title "Mac buffer overflow as function of time, mean"
attr unit Byte/s
scalar Highway5G.car[0].cellularNic.mac macPacketLossDl:mean -nan
attr recordingmode mean
attr source macPacketLossDl
attr title "Mac Packet Loss Dl, mean"
attr unit ""
scalar Highway5G.car[0].cellularNic.mac macPacketLossUl:mean -nan
attr recordingmode mean
attr source macPacketLossUl
attr title "Mac Packet Loss Ul, mean"
attr unit ""
scalar Highway5G.car[0].cellularNic.mac macCellPacketLossUl:mean -nan
attr recordingmode mean
attr source macCellPacketLossUl
attr title "Mac Cell Packet Loss Ul, mean"
attr unit ""
scalar Highway5G.car[0].cellularNic.mac macCellPacketLossDl:mean -nan
attr recordingmode mean
attr source macCellPacketLossDl
attr title "Mac Cell Packet Loss Dl, mean"
attr unit ""
scalar Highway5G.car[0].cellularNic.mac macCellThroughputDl:mean -nan
attr recordingmode mean
attr source macCellThroughputDl
attr title "Cell Throughput at the MAC layer DL, mean"
attr unit Bps
scalar Highway5G.car[0].cellularNic.mac macCellThroughputUl:mean -nan
attr recordingmode mean
attr source macCellThroughputUl
attr title "Cell Throughput at the MAC layer UL, mean"
attr unit Bps
scalar Highway5G.car[0].cellularNic.mac macThroughputUl:mean -nan
attr recordingmode mean
attr source macThroughputUl
attr title "Throughput at the MAC layer UL, mean"
attr unit Bps
scalar Highway5G.car[0].cellularNic.mac macDelayUl:mean -nan
attr recordingmode mean
attr source macDelayUl
attr title "Delay at the MAC layer UL, mean"
attr unit s
scalar Highway5G.car[0].cellularNic.mac macThroughputDl:mean -nan
attr recordingmode mean
attr source macThroughputDl
attr title "Throughput at the MAC layer DL, mean"
attr unit Bps
scalar Highway5G.car[0].cellularNic.mac macDelayDl:mean -nan
attr recordingmode mean
attr source macDelayDl
attr title "Delay at the MAC layer UL, mean"
attr unit s
scalar Highway5G.car[0].cellularNic.mac sentPacketToLowerLayer:count 0
attr interpolationmode none
attr recordingmode count
attr source sentPacketToLowerLayer
scalar Highway5G.car[0].cellularNic.mac sentPacketToLowerLayer:sum(packetBytes) 0
attr interpolationmode none
attr recordingmode sum(packetBytes)
attr source sentPacketToLowerLayer
scalar Highway5G.car[0].cellularNic.mac sentPacketToUpperLayer:count 0
attr interpolationmode none
attr recordingmode count
attr source sentPacketToUpperLayer
scalar Highway5G.car[0].cellularNic.mac sentPacketToUpperLayer:sum(packetBytes) 0
attr interpolationmode none
attr recordingmode sum(packetBytes)
attr source sentPacketToUpperLayer
scalar Highway5G.car[0].cellularNic.mac receivedPacketFromLowerLayer:count 0
attr interpolationmode none
attr recordingmode count
attr source receivedPacketFromLowerLayer
scalar Highway5G.car[0].cellularNic.mac receivedPacketFromLowerLayer:sum(packetBytes) 0
attr interpolationmode none
attr recordingmode sum(packetBytes)
attr source receivedPacketFromLowerLayer
scalar Highway5G.car[0].cellularNic.mac receivedPacketFromUpperLayer:count 0
attr interpolationmode none
attr recordingmode count
attr source receivedPacketFromUpperLayer
scalar Highway5G.car[0].cellularNic.mac receivedPacketFromUpperLayer:sum(packetBytes) 0
attr interpolationmode none
attr recordingmode sum(packetBytes)
attr source receivedPacketFromUpperLayer
par Highway5G.car[0].cellularNic.phy typename "\"simu5g.stack.phy.NRPhyUe\""
par Highway5G.car[0].cellularNic.phy ueTxPower 20
par Highway5G.car[0].cellularNic.phy eNodeBTxPower 40
par Highway5G.car[0].cellularNic.phy microTxPower 30
par Highway5G.car[0].cellularNic.phy txDirection "\"OMNI\""
par Highway5G.car[0].cellularNic.phy txAngle 0
par Highway5G.car[0].cellularNic.phy dynamicCellAssociation false
par Highway5G.car[0].cellularNic.phy enableHandover false
par Highway5G.car[0].cellularNic.phy handoverLatency 0.05s
attr unit s
par Highway5G.car[0].cellularNic.phy enableMulticastD2DRangeCheck false
par Highway5G.car[0].cellularNic.phy multicastD2DRange 1000m
attr unit m
par Highway5G.car[0].cellularNic.phy minRssiDefault true
par Highway5G.car[0].cellularNic.phy minRssi -99dB
attr unit dB
par Highway5G.car[0].cellularNic.phy d2dTxPower 26
par Highway5G.car[0].cellularNic.phy d2dMulticastCaptureEffect true
par Highway5G.car[0].cellularNic.phy d2dMulticastCaptureEffectFactor "\"RSRP\""
scalar Highway5G.car[0].cellularNic.phy averageCqiD2D:mean -nan
attr recordingmode mean
attr source averageCqiD2D
attr title "Average Cqi reported in D2D, mean"
attr unit cqi
scalar Highway5G.car[0].cellularNic.phy averageCqiUl:mean -nan
attr recordingmode mean
attr source averageCqiUl
attr title "Average Cqi reported in UL, mean"
attr unit cqi
scalar Highway5G.car[0].cellularNic.phy averageCqiUl:count 0
attr recordingmode count
attr source averageCqiUl
attr title "Average Cqi reported in UL, count"
attr unit cqi
scalar Highway5G.car[0].cellularNic.phy averageCqiDl:mean -nan
attr recordingmode mean
attr source averageCqiDl
attr title "Average Cqi reported in DL, mean"
attr unit cqi
scalar Highway5G.car[0].cellularNic.phy averageCqiDl:count 0
attr recordingmode count
attr source averageCqiDl
attr title "Average Cqi reported in DL, count"
attr unit cqi
par Highway5G.car[0].cellularNic.channelModel[0] typename "\"simu5g.stack.phy.ChannelModel.LteRealisticChannelModel\""
par Highway5G.car[0].cellularNic.channelModel[0] componentCarrierIndex 0
par Highway5G.car[0].cellularNic.channelModel[0] shadowing true
par Highway5G.car[0].cellularNic.channelModel[0] scenario "\"URBAN_MACROCELL\""
par Highway5G.car[0].cellularNic.channelModel[0] nodeb_height 25
par Highway5G.car[0].cellularNic.channelModel[0] building_height 20
par Highway5G.car[0].cellularNic.channelModel[0] inside_building false
par Highway5G.car[0].cellularNic.channelModel[0] street_wide 20
par Highway5G.car[0].cellularNic.channelModel[0] ue_height 1.5
par Highway5G.car[0].cellularNic.channelModel[0] tolerateMaxDistViolation false
par Highway5G.car[0].cellularNic.channelModel[0] useTorus false
par Highway5G.car[0].cellularNic.channelModel[0] correlation_distance 50
par Highway5G.car[0].cellularNic.channelModel[0] targetBler 0.01
par Highway5G.car[0].cellularNic.channelModel[0] harqReduction 0.2
par Highway5G.car[0].cellularNic.channelModel[0] lambdaMinTh 0.02
par Highway5G.car[0].cellularNic.channelModel[0] lambdaMaxTh 0.2
par Highway5G.car[0].cellularNic.channelModel[0] lambdaRatioTh 20
par Highway5G.car[0].cellularNic.channelModel[0] antennaGainUe 0
par Highway5G.car[0].cellularNic.channelModel[0] antennGainEnB 18
par Highway5G.car[0].cellularNic.channelModel[0] antennGainMicro 5
par Highway5G.car[0].cellularNic.channelModel[0] thermalNoise -104.5
par Highway5G.car[0].cellularNic.channelModel[0] ue_noise_figure 7
par Highway5G.car[0].cellularNic.channelModel[0] bs_noise_figure 5
par Highway5G.car[0].cellularNic.channelModel[0] cable_loss 2
par Highway5G.car[0].cellularNic.channelModel[0] dynamic_los false
par Highway5G.car[0].cellularNic.channelModel[0] fixed_los false
par Highway5G.car[0].cellularNic.channelModel[0] fading true
par Highway5G.car[0].cellularNic.channelModel[0] fading_type "\"JAKES\""
par Highway5G.car[0].cellularNic.channelModel[0] fading_paths 6
par Highway5G.car[0].cellularNic.channelModel[0] delay_rms 3.63e-07
par Highway5G.car[0].cellularNic.channelModel[0] bgCell_interference true
par Highway5G.car[0].cellularNic.channelModel[0] extCell_interference true
par Highway5G.car[0].cellularNic.channelModel[0] downlink_interference false
par Highway5G.car[0].cellularNic.channelModel[0] uplink_interference false
par Highway5G.car[0].cellularNic.channelModel[0] d2d_interference true
par Highway5G.car[0].cellularNic.channelModel[0] enable_extCell_los true
par Highway5G.car[0].cellularNic.channelModel[0] useRsrqFromLog false
par Highway5G.car[0].cellularNic.channelModel[0] rsrqShift 22
par Highway5G.car[0].cellularNic.channelModel[0] rsrqScale 1
par Highway5G.car[0].cellularNic.channelModel[0] collectSinrStatistics true
scalar Highway5G.car[0].cellularNic.channelModel[0] distance:mean -nan
attr recordingmode mean
attr source distance
attr title "distance between UE and serving base station, mean"
attr unit meters
scalar Highway5G.car[0].cellularNic.channelModel[0] measuredSinrUl:mean -nan
attr recordingmode mean
attr source measuredSinrUl
attr title "SINR measured at feedback computation, UL, mean"
attr unit dB
scalar Highway5G.car[0].cellularNic.channelModel[0] measuredSinrDl:mean -nan
attr recordingmode mean
attr source measuredSinrDl
attr title "SINR measured at feedback computation, DL, mean"
attr unit dB
scalar Highway5G.car[0].cellularNic.channelModel[0] rcvdSinrUl:mean -nan
attr recordingmode mean
attr source rcvdSinrUl
attr title "SINR measured at packet reception, UL, mean"
attr unit dB
scalar Highway5G.car[0].cellularNic.channelModel[0] rcvdSinrDl:mean -nan
attr recordingmode mean
attr source rcvdSinrDl
attr title "SINR measured at packet reception, DL, mean"
attr unit dB
par Highway5G.car[0].cellularNic.dlFbGen typename "\"simu5g.stack.phy.feedback.LteDlFeedbackGenerator\""
par Highway5G.car[0].cellularNic.dlFbGen feedbackType "\"ALLBANDS\""
par Highway5G.car[0].cellularNic.dlFbGen rbAllocationType "\"localized\""
par Highway5G.car[0].cellularNic.dlFbGen fbPeriod 6
par Highway5G.car[0].cellularNic.dlFbGen fbDelay 1
par Highway5G.car[0].cellularNic.dlFbGen usePeriodic true
par Highway5G.car[0].cellularNic.dlFbGen initialTxMode "\"SINGLE_ANTENNA_PORT0\""
par Highway5G.car[0].cellularNic.dlFbGen feedbackGeneratorType "\"IDEAL\""
par Highway5G.car[0].cellularNic.nrRlc.tm typename "\"simu5g.stack.rlc.LteRlcTm\""
par Highway5G.car[0].cellularNic.nrRlc.tm queueSize 2097152B
attr unit B
scalar Highway5G.car[0].cellularNic.nrRlc.tm rlcPacketLossDl:mean -nan
attr recordingmode mean
attr source rlcPacketLossDl
attr title "rlc Packet Loss, mean"
attr unit ""
scalar Highway5G.car[0].cellularNic.nrRlc.tm rlcPacketLossDl:sum 0
attr recordingmode sum
attr source rlcPacketLossDl
attr title "rlc Packet Loss, sum"
attr unit ""
scalar Highway5G.car[0].cellularNic.nrRlc.tm rlcPacketLossUl:mean -nan
attr recordingmode mean
attr source rlcPacketLossUl
attr title "rlc Packet Loss, mean"
attr unit ""
scalar Highway5G.car[0].cellularNic.nrRlc.tm rlcPacketLossUl:sum 0
attr recordingmode sum
attr source rlcPacketLossUl
attr title "rlc Packet Loss, sum"
attr unit ""
scalar Highway5G.car[0].cellularNic.nrRlc.tm sentPacketToLowerLayer:count 0
attr interpolationmode none
attr recordingmode count
attr source sentPacketToLowerLayer
scalar Highway5G.car[0].cellularNic.nrRlc.tm sentPacketToLowerLayer:sum(packetBytes) 0
attr interpolationmode none
attr recordingmode sum(packetBytes)
attr source sentPacketToLowerLayer
scalar Highway5G.car[0].cellularNic.nrRlc.tm sentPacketToUpperLayer:count 0
attr interpolationmode none
attr recordingmode count
attr source sentPacketToUpperLayer
scalar Highway5G.car[0].cellularNic.nrRlc.tm sentPacketToUpperLayer:sum(packetBytes) 0
attr interpolationmode none
attr recordingmode sum(packetBytes)
attr source sentPacketToUpperLayer
scalar Highway5G.car[0].cellularNic.nrRlc.tm receivedPacketFromLowerLayer:count 0
attr interpolationmode none
attr recordingmode count
attr source receivedPacketFromLowerLayer
scalar Highway5G.car[0].cellularNic.nrRlc.tm receivedPacketFromLowerLayer:sum(packetBytes) 0
attr interpolationmode none
attr recordingmode sum(packetBytes)
attr source receivedPacketFromLowerLayer
scalar Highway5G.car[0].cellularNic.nrRlc.tm receivedPacketFromUpperLayer:count 0
attr interpolationmode none
attr recordingmode count
attr source receivedPacketFromUpperLayer
scalar Highway5G.car[0].cellularNic.nrRlc.tm receivedPacketFromUpperLayer:sum(packetBytes) 0
attr interpolationmode none
attr recordingmode sum(packetBytes)
attr source receivedPacketFromUpperLayer
par Highway5G.car[0].cellularNic.nrRlc.um typename "\"simu5g.stack.rlc.LteRlcUmD2D\""
par Highway5G.car[0].cellularNic.nrRlc.um queueSize 2097152B
attr unit B
par Highway5G.car[0].cellularNic.nrRlc.um mapAllLcidsToSingleBearer false
scalar Highway5G.car[0].cellularNic.nrRlc.um rlcPduPacketLossD2D:mean -nan
attr recordingmode mean
attr source rlcPduPacketLossD2D
attr title "rlc Packet Loss, mean"
attr unit ""
scalar Highway5G.car[0].cellularNic.nrRlc.um rlcPduThroughputD2D:mean -nan
attr recordingmode mean
attr source rlcPduThroughputD2D
attr title "Throughput at the rlc layer D2D, mean"
attr unit Bps
scalar Highway5G.car[0].cellularNic.nrRlc.um rlcPduDelayD2D:mean -nan
attr recordingmode mean
attr source rlcPduDelayD2D
attr title "Delay at the rlc layer D2D, mean"
attr unit s
scalar Highway5G.car[0].cellularNic.nrRlc.um rlcCellThroughputD2D:mean -nan
attr recordingmode mean
attr source rlcCellThroughputD2D
attr title "Cell Throughput at the rlc layer D2D, mean"
attr unit Bps
scalar Highway5G.car[0].cellularNic.nrRlc.um rlcCellPacketLossD2D:mean -nan
attr recordingmode mean
attr source rlcCellPacketLossD2D
attr title "rlc Cell Packet Loss, mean"
attr unit ""
scalar Highway5G.car[0].cellularNic.nrRlc.um rlcPacketLossD2D:mean -nan
attr recordingmode mean
attr source rlcPacketLossD2D
attr title "rlc Packet Loss, mean"
attr unit ""
scalar Highway5G.car[0].cellularNic.nrRlc.um rlcThroughputD2D:mean -nan
attr recordingmode mean
attr source rlcThroughputD2D
attr title "Throughput at the rlc layer D2D, mean"
attr unit Bps
scalar Highway5G.car[0].cellularNic.nrRlc.um rlcDelayD2D:mean -nan
attr recordingmode mean
attr source rlcDelayD2D
attr title "Delay at the rlc layer D2D, mean"
attr unit s
scalar Highway5G.car[0].cellularNic.nrRlc.um rlcPduPacketLossDl:mean -nan
attr recordingmode mean
attr source rlcPduPacketLossDl
attr title "rlc Packet Loss, mean"
attr unit ""
scalar Highway5G.car[0].cellularNic.nrRlc.um rlcPduPacketLossUl:mean 0
attr recordingmode mean
attr source rlcPduPacketLossUl
attr title "rlc Packet Loss, mean"
attr unit ""
scalar Highway5G.car[0].cellularNic.nrRlc.um rlcPduThroughputUl:mean 0
attr recordingmode mean
attr source rlcPduThroughputUl
attr title "Throughput at the rlc layer UL, mean"
attr unit Bps
scalar Highway5G.car[0].cellularNic.nrRlc.um rlcPduDelayUl:mean 0.0040075949367087
attr recordingmode mean
attr source rlcPduDelayUl
attr title "Delay at the rlc layer UL, mean"
attr unit s
scalar Highway5G.car[0].cellularNic.nrRlc.um rlcPduThroughputDl:mean -nan
attr recordingmode mean
attr source rlcPduThroughputDl
attr title "Throughput at the rlc layer DL, mean"
attr unit Bps
scalar Highway5G.car[0].cellularNic.nrRlc.um rlcPduDelayDl:mean -nan
attr recordingmode mean
attr source rlcPduDelayDl
attr title "Delay at the rlc layer UL, mean"
attr unit s
scalar Highway5G.car[0].cellularNic.nrRlc.um rlcCellPacketLossUl:mean -nan
attr recordingmode mean
attr source rlcCellPacketLossUl
attr title "rlc Cell Packet Loss, mean"
attr unit ""
scalar Highway5G.car[0].cellularNic.nrRlc.um rlcCellPacketLossDl:mean -nan
attr recordingmode mean
attr source rlcCellPacketLossDl
attr title "rlc Cell Packet Loss, mean"
attr unit ""
scalar Highway5G.car[0].cellularNic.nrRlc.um rlcCellThroughputDl:mean -nan
attr recordingmode mean
attr source rlcCellThroughputDl
attr title "Cell Throughput at the rlc layer DL, mean"
attr unit Bps
scalar Highway5G.car[0].cellularNic.nrRlc.um rlcCellThroughputUl:mean -nan
attr recordingmode mean
attr source rlcCellThroughputUl
attr title "Cell Throughput at the rlc layer UL, mean"
attr unit Bps
scalar Highway5G.car[0].cellularNic.nrRlc.um rlcPacketLossTotal:mean 0.45407458563536
attr recordingmode mean
attr source rlcPacketLossTotal
attr title "rlc Packet Loss, mean"
attr unit ""
scalar Highway5G.car[0].cellularNic.nrRlc.um rlcThroughputUl:mean 1867.1215135154
attr recordingmode mean
attr source rlcThroughputUl
attr title "Throughput at the rlc layer UL, mean"
attr unit Bps
scalar Highway5G.car[0].cellularNic.nrRlc.um rlcDelayUl:mean 0.0082535265060817
attr recordingmode mean
attr source rlcDelayUl
attr title "Delay at the rlc layer UL, mean"
attr unit s
scalar Highway5G.car[0].cellularNic.nrRlc.um rlcThroughputDl:mean -nan
attr recordingmode mean
attr source rlcThroughputDl
attr title "Throughput at the rlc layer DL, mean"
attr unit Bps
scalar Highway5G.car[0].cellularNic.nrRlc.um rlcDelayDl:mean -nan
attr recordingmode mean
attr source rlcDelayDl
attr title "Delay at the rlc layer DL, mean"
attr unit s
scalar Highway5G.car[0].cellularNic.nrRlc.um rlcPacketLossDl:mean -nan
attr recordingmode mean
attr source rlcPacketLossDl
attr title "rlc Packet Loss, mean"
attr unit ""
scalar Highway5G.car[0].cellularNic.nrRlc.um rlcPacketLossDl:sum 0
attr recordingmode sum
attr source rlcPacketLossDl
attr title "rlc Packet Loss, sum"
attr unit ""
scalar Highway5G.car[0].cellularNic.nrRlc.um rlcPacketLossUl:mean 0.2937890974084
attr recordingmode mean
attr source rlcPacketLossUl
attr title "rlc Packet Loss, mean"
attr unit ""
scalar Highway5G.car[0].cellularNic.nrRlc.um rlcPacketLossUl:sum 1315
attr recordingmode sum
attr source rlcPacketLossUl
attr title "rlc Packet Loss, sum"
attr unit ""
scalar Highway5G.car[0].cellularNic.nrRlc.um sentPacketToLowerLayer:count 1580
attr interpolationmode none
attr recordingmode count
attr source sentPacketToLowerLayer
scalar Highway5G.car[0].cellularNic.nrRlc.um sentPacketToLowerLayer:sum(packetBytes) 112249
attr interpolationmode none
attr recordingmode sum(packetBytes)
attr source sentPacketToLowerLayer
scalar Highway5G.car[0].cellularNic.nrRlc.um sentPacketToUpperLayer:count 0
attr interpolationmode none
attr recordingmode count
attr source sentPacketToUpperLayer
scalar Highway5G.car[0].cellularNic.nrRlc.um sentPacketToUpperLayer:sum(packetBytes) 0
attr interpolationmode none
attr recordingmode sum(packetBytes)
attr source sentPacketToUpperLayer
scalar Highway5G.car[0].cellularNic.nrRlc.um receivedPacketFromLowerLayer:count 0
attr interpolationmode none
attr recordingmode count
attr source receivedPacketFromLowerLayer
scalar Highway5G.car[0].cellularNic.nrRlc.um receivedPacketFromLowerLayer:sum(packetBytes) 0
attr interpolationmode none
attr recordingmode sum(packetBytes)
attr source receivedPacketFromLowerLayer
scalar Highway5G.car[0].cellularNic.nrRlc.um receivedPacketFromUpperLayer:count 1582
attr interpolationmode none
attr recordingmode count
attr source receivedPacketFromUpperLayer
scalar Highway5G.car[0].cellularNic.nrRlc.um receivedPacketFromUpperLayer:sum(packetBytes) 109158
attr interpolationmode none
attr recordingmode sum(packetBytes)
attr source receivedPacketFromUpperLayer
par Highway5G.car[0].cellularNic.nrRlc.am typename "\"simu5g.stack.rlc.LteRlcAm\""
scalar Highway5G.car[0].cellularNic.nrRlc.am rlcPduPacketLossDl:mean -nan
attr recordingmode mean
attr source rlcPduPacketLossDl
attr title "rlc Packet Loss, mean"
attr unit ""
scalar Highway5G.car[0].cellularNic.nrRlc.am rlcPduPacketLossUl:mean -nan
attr recordingmode mean
attr source rlcPduPacketLossUl
attr title "rlc Packet Loss, mean"
attr unit ""
scalar Highway5G.car[0].cellularNic.nrRlc.am rlcPduThroughputUl:mean -nan
attr recordingmode mean
attr source rlcPduThroughputUl
attr title "Throughput at the rlc layer UL, mean"
attr unit Bps
scalar Highway5G.car[0].cellularNic.nrRlc.am rlcPduDelayUl:mean -nan
attr recordingmode mean
attr source rlcPduDelayUl
attr title "Delay at the rlc layer UL, mean"
attr unit s
scalar Highway5G.car[0].cellularNic.nrRlc.am rlcPduThroughputDl:mean -nan
attr recordingmode mean
attr source rlcPduThroughputDl
attr title "Throughput at the rlc layer DL, mean"
attr unit Bps
scalar Highway5G.car[0].cellularNic.nrRlc.am rlcPduDelayDl:mean -nan
attr recordingmode mean
attr source rlcPduDelayDl
attr title "Delay at the rlc layer UL, mean"
attr unit s
scalar Highway5G.car[0].cellularNic.nrRlc.am rlcCellPacketLossUl:mean -nan
attr recordingmode mean
attr source rlcCellPacketLossUl
attr title "rlc Cell Packet Loss, mean"
attr unit ""
scalar Highway5G.car[0].cellularNic.nrRlc.am rlcCellPacketLossDl:mean -nan
attr recordingmode mean
attr source rlcCellPacketLossDl
attr title "rlc Cell Packet Loss, mean"
attr unit ""
scalar Highway5G.car[0].cellularNic.nrRlc.am rlcCellThroughputDl:mean -nan
attr recordingmode mean
attr source rlcCellThroughputDl
attr title "Cell Throughput at the rlc layer DL, mean"
attr unit Bps
scalar Highway5G.car[0].cellularNic.nrRlc.am rlcCellThroughputUl:mean -nan
attr recordingmode mean
attr source rlcCellThroughputUl
attr title "Cell Throughput at the rlc layer UL, mean"
attr unit Bps
scalar Highway5G.car[0].cellularNic.nrRlc.am rlcPacketLossTotal:mean -nan
attr recordingmode mean
attr source rlcPacketLossTotal
attr title "rlc Packet Loss, mean"
attr unit ""
scalar Highway5G.car[0].cellularNic.nrRlc.am rlcThroughputUl:mean -nan
attr recordingmode mean
attr source rlcThroughputUl
attr title "Throughput at the rlc layer UL, mean"
attr unit Bps
scalar Highway5G.car[0].cellularNic.nrRlc.am rlcDelayUl:mean -nan
attr recordingmode mean
attr source rlcDelayUl
attr title "Delay at the rlc layer UL, mean"
attr unit s
scalar Highway5G.car[0].cellularNic.nrRlc.am rlcThroughputDl:mean -nan
attr recordingmode mean
attr source rlcThroughputDl
attr title "Throughput at the rlc layer DL, mean"
attr unit Bps
scalar Highway5G.car[0].cellularNic.nrRlc.am rlcDelayDl:mean -nan
attr recordingmode mean
attr source rlcDelayDl
attr title "Delay at the rlc layer UL, mean"
attr unit s
scalar Highway5G.car[0].cellularNic.nrRlc.am rlcPacketLossDl:mean -nan
attr recordingmode mean
attr source rlcPacketLossDl
attr title "rlc Packet Loss, mean"
attr unit ""
scalar Highway5G.car[0].cellularNic.nrRlc.am rlcPacketLossUl:mean -nan
attr recordingmode mean
attr source rlcPacketLossUl
attr title "rlc Packet Loss, mean"
attr unit ""
par Highway5G.car[0].cellularNic.nrRlc.mux typename "\"simu5g.stack.rlc.LteRlcMux\""
par "Highway5G.car[0].cellularNic.nrRlc.UmTxEntity Lcid: 1" typename "\"simu5g.stack.rlc.UmTxEntity\""
par "Highway5G.car[0].cellularNic.nrRlc.UmTxEntity Lcid: 1" fragmentSize 30B
attr unit B
par Highway5G.car[0].cellularNic.nrRlc typename "\"simu5g.stack.rlc.LteRlc\""
par Highway5G.car[0].cellularNic.nrRlc LteRlcUmType "\"LteRlcUm\""
par Highway5G.car[0].cellularNic.nrRlc d2dCapable true
par Highway5G.car[0].cellularNic.nrRlc umType "\"LteRlcUmD2D\""
par Highway5G.car[0].cellularNic.nrMac typename "\"simu5g.stack.mac.NRMacUe\""
par Highway5G.car[0].cellularNic.nrMac interfaceTableModule "\"Highway5G.car[0].interfaceTable\""
par Highway5G.car[0].cellularNic.nrMac interfaceName "\"cellular\""
par Highway5G.car[0].cellularNic.nrMac queueSize 2097152B
attr unit B
par Highway5G.car[0].cellularNic.nrMac muMimo true
par Highway5G.car[0].cellularNic.nrMac harqProcesses 8
par Highway5G.car[0].cellularNic.nrMac maxHarqRtx 3
par Highway5G.car[0].cellularNic.nrMac harqFbEvaluationTimer 4
par Highway5G.car[0].cellularNic.nrMac statDisplay false
par Highway5G.car[0].cellularNic.nrMac usePreconfiguredTxParams false
par Highway5G.car[0].cellularNic.nrMac d2dCqi 7
scalar Highway5G.car[0].cellularNic.nrMac rcvdD2DModeSwitchNotification:count 0
attr recordingmode count
attr source rcvdD2DModeSwitchNotification
attr title "Reception of mode switch notification (tx side), count"
attr unit ""
scalar Highway5G.car[0].cellularNic.nrMac macThroughputD2D:mean -nan
attr recordingmode mean
attr source macThroughputD2D
attr title "Throughput at the MAC layer D2D, mean"
attr unit Bps
scalar Highway5G.car[0].cellularNic.nrMac macDelayD2D:mean -nan
attr recordingmode mean
attr source macDelayD2D
attr title "Delay at the MAC layer D2D, mean"
attr unit s
scalar Highway5G.car[0].cellularNic.nrMac macPacketLossD2D:mean -nan
attr recordingmode mean
attr source macPacketLossD2D
attr title "Mac Packet Loss D2D, mean"
attr unit ""
scalar Highway5G.car[0].cellularNic.nrMac harqErrorRateD2D:mean -nan
attr recordingmode mean
attr source harqErrorRateD2D
attr title "Harq Error Rate D2D, mean"
attr unit ""
scalar Highway5G.car[0].cellularNic.nrMac harqErrorRate_4th_D2D:mean -nan
attr recordingmode mean
attr source harqErrorRate_4th_D2D
attr title "Harq Error Rate D2D (4th Tx), mean"
attr unit ""
scalar Highway5G.car[0].cellularNic.nrMac harqErrorRate_3rd_D2D:mean -nan
attr recordingmode mean
attr source harqErrorRate_3rd_D2D
attr title "Harq Error Rate D2D (3rd Tx), mean"
attr unit ""
scalar Highway5G.car[0].cellularNic.nrMac harqErrorRate_2nd_D2D:mean -nan
attr recordingmode mean
attr source harqErrorRate_2nd_D2D
attr title "Harq Error Rate D2D (2nd Tx), mean"
attr unit ""
scalar Highway5G.car[0].cellularNic.nrMac harqErrorRate_1st_D2D:mean -nan
attr recordingmode mean
attr source harqErrorRate_1st_D2D
attr title "Harq Error Rate D2D (1st Tx), mean"
attr unit ""
scalar Highway5G.car[0].cellularNic.nrMac measuredItbs:mean -nan
attr recordingmode mean
attr source measuredItbs
attr title "TBS index, mean"
attr unit ""
scalar Highway5G.car[0].cellularNic.nrMac harqErrorRate_4th_Dl:mean -nan
attr recordingmode mean
attr source harqErrorRate_4th_Dl
attr title "Harq Error Rate Dl (4th tx), mean"
attr unit ""
scalar Highway5G.car[0].cellularNic.nrMac harqErrorRate_4th_Ul:mean -nan
attr recordingmode mean
attr source harqErrorRate_4th_Ul
attr title "Harq Error Rate Ul (4th tx), mean"
attr unit ""
scalar Highway5G.car[0].cellularNic.nrMac harqErrorRate_3rd_Dl:mean -nan
attr recordingmode mean
attr source harqErrorRate_3rd_Dl
attr title "Harq Error Rate Dl (3rd tx), mean"
attr unit ""
scalar Highway5G.car[0].cellularNic.nrMac harqErrorRate_3rd_Ul:mean -nan
attr recordingmode mean
attr source harqErrorRate_3rd_Ul
attr title "Harq Error Rate Ul (3rd tx), mean"
attr unit ""
scalar Highway5G.car[0].cellularNic.nrMac harqErrorRate_2nd_Dl:mean -nan
attr recordingmode mean
attr source harqErrorRate_2nd_Dl
attr title "Harq Error Rate Dl (2nd tx), mean"
attr unit ""
scalar Highway5G.car[0].cellularNic.nrMac harqErrorRate_2nd_Ul:mean 0
attr recordingmode mean
attr source harqErrorRate_2nd_Ul
attr title "Harq Error Rate Ul (2nd tx), mean"
attr unit ""
scalar Highway5G.car[0].cellularNic.nrMac harqErrorRate_1st_Dl:mean -nan
attr recordingmode mean
attr source harqErrorRate_1st_Dl
attr title "Harq Error Rate Dl (1st tx), mean"
attr unit ""
scalar Highway5G.car[0].cellularNic.nrMac harqErrorRate_1st_Ul:mean 0.0012658227848101
attr recordingmode mean
attr source harqErrorRate_1st_Ul
attr title "Harq Error Rate Ul (1st tx), mean"
attr unit ""
scalar Highway5G.car[0].cellularNic.nrMac harqTxAttemptsUl:mean 1.0012658227848
attr recordingmode mean
attr source harqTxAttemptsUl
attr title "Harq Tx Attempts Ul, mean"
attr unit ""
scalar Highway5G.car[0].cellularNic.nrMac harqTxAttemptsDl:mean -nan
attr recordingmode mean
attr source harqTxAttemptsDl
attr title "Harq Tx Attempts Dl, mean"
attr unit ""
scalar Highway5G.car[0].cellularNic.nrMac harqErrorRateDl:mean -nan
attr recordingmode mean
attr source harqErrorRateDl
attr title "Harq Error Rate Dl, mean"
attr unit ""
scalar Highway5G.car[0].cellularNic.nrMac harqErrorRateUl:mean 0.0012642225031606
attr recordingmode mean
attr source harqErrorRateUl
attr title "Harq Error Rate Ul, mean"
attr unit ""
scalar Highway5G.car[0].cellularNic.nrMac macBufferOverFlowD2D:mean -nan
attr recordingmode mean
attr source macBufferOverFlowD2D
attr title "Mac buffer overflow as function of time, mean"
attr unit Byte/s
scalar Highway5G.car[0].cellularNic.nrMac macBufferOverFlowUl:mean -nan
attr recordingmode mean
attr source macBufferOverFlowUl
attr title "Mac buffer overflow as function of time, mean"
attr unit Byte/s
scalar Highway5G.car[0].cellularNic.nrMac macBufferOverFlowDl:mean -nan
attr recordingmode mean
attr source macBufferOverFlowDl
attr title "Mac buffer overflow as function of time, mean"
attr unit Byte/s
scalar Highway5G.car[0].cellularNic.nrMac macPacketLossDl:mean -nan
attr recordingmode mean
attr source macPacketLossDl
attr title "Mac Packet Loss Dl, mean"
attr unit ""
scalar Highway5G.car[0].cellularNic.nrMac macPacketLossUl:mean 0
attr recordingmode mean
attr source macPacketLossUl
attr title "Mac Packet Loss Ul, mean"
attr unit ""
scalar Highway5G.car[0].cellularNic.nrMac macCellPacketLossUl:mean -nan
attr recordingmode mean
attr source macCellPacketLossUl
attr title "Mac Cell Packet Loss Ul, mean"
attr unit ""
scalar Highway5G.car[0].cellularNic.nrMac macCellPacketLossDl:mean -nan
attr recordingmode mean
attr source macCellPacketLossDl
attr title "Mac Cell Packet Loss Dl, mean"
attr unit ""
scalar Highway5G.car[0].cellularNic.nrMac macCellThroughputDl:mean -nan
attr recordingmode mean
attr source macCellThroughputDl
attr title "Cell Throughput at the MAC layer DL, mean"
attr unit Bps
scalar Highway5G.car[0].cellularNic.nrMac macCellThroughputUl:mean -nan
attr recordingmode mean
attr source macCellThroughputUl
attr title "Cell Throughput at the MAC layer UL, mean"
attr unit Bps
scalar Highway5G.car[0].cellularNic.nrMac macThroughputUl:mean 1976.5937038757
attr recordingmode mean
attr source macThroughputUl
attr title "Throughput at the MAC layer UL, mean"
attr unit Bps
scalar Highway5G.car[0].cellularNic.nrMac macDelayUl:mean 0.0040075949367087
attr recordingmode mean
attr source macDelayUl
attr title "Delay at the MAC layer UL, mean"
attr unit s
scalar Highway5G.car[0].cellularNic.nrMac macThroughputDl:mean -nan
attr recordingmode mean
attr source macThroughputDl
attr title "Throughput at the MAC layer DL, mean"
attr unit Bps
scalar Highway5G.car[0].cellularNic.nrMac macDelayDl:mean -nan
attr recordingmode mean
attr source macDelayDl
attr title "Delay at the MAC layer UL, mean"
attr unit s
scalar Highway5G.car[0].cellularNic.nrMac sentPacketToLowerLayer:count 3161
attr interpolationmode none
attr recordingmode count
attr source sentPacketToLowerLayer
scalar Highway5G.car[0].cellularNic.nrMac sentPacketToLowerLayer:sum(packetBytes) 117134
attr interpolationmode none
attr recordingmode sum(packetBytes)
attr source sentPacketToLowerLayer
scalar Highway5G.car[0].cellularNic.nrMac sentPacketToUpperLayer:count 1580
attr interpolationmode none
attr recordingmode count
attr source sentPacketToUpperLayer
scalar Highway5G.car[0].cellularNic.nrMac sentPacketToUpperLayer:sum(packetBytes) 1580
attr interpolationmode none
attr recordingmode sum(packetBytes)
attr source sentPacketToUpperLayer
scalar Highway5G.car[0].cellularNic.nrMac receivedPacketFromLowerLayer:count 4743
attr interpolationmode none
attr recordingmode count
attr source receivedPacketFromLowerLayer
scalar Highway5G.car[0].cellularNic.nrMac receivedPacketFromLowerLayer:sum(packetBytes) 4743
attr interpolationmode none
attr recordingmode sum(packetBytes)
attr source receivedPacketFromLowerLayer
scalar Highway5G.car[0].cellularNic.nrMac receivedPacketFromUpperLayer:count 3162
attr interpolationmode none
attr recordingmode count
attr source receivedPacketFromUpperLayer
scalar Highway5G.car[0].cellularNic.nrMac receivedPacketFromUpperLayer:sum(packetBytes) 224571
attr interpolationmode none
attr recordingmode sum(packetBytes)
attr source receivedPacketFromUpperLayer
par Highway5G.car[0].cellularNic.nrPhy typename "\"simu5g.stack.phy.NRPhyUe\""
par Highway5G.car[0].cellularNic.nrPhy ueTxPower 20
par Highway5G.car[0].cellularNic.nrPhy eNodeBTxPower 40
par Highway5G.car[0].cellularNic.nrPhy microTxPower 30
par Highway5G.car[0].cellularNic.nrPhy txDirection "\"OMNI\""
par Highway5G.car[0].cellularNic.nrPhy txAngle 0
par Highway5G.car[0].cellularNic.nrPhy dynamicCellAssociation true
par Highway5G.car[0].cellularNic.nrPhy enableHandover true
par Highway5G.car[0].cellularNic.nrPhy handoverLatency 0.05s
attr unit s
par Highway5G.car[0].cellularNic.nrPhy enableMulticastD2DRangeCheck false
par Highway5G.car[0].cellularNic.nrPhy multicastD2DRange 1000m
attr unit m
par Highway5G.car[0].cellularNic.nrPhy minRssiDefault true
par Highway5G.car[0].cellularNic.nrPhy minRssi -99dB
attr unit dB
par Highway5G.car[0].cellularNic.nrPhy d2dTxPower 26
par Highway5G.car[0].cellularNic.nrPhy d2dMulticastCaptureEffect true
par Highway5G.car[0].cellularNic.nrPhy d2dMulticastCaptureEffectFactor "\"RSRP\""
scalar Highway5G.car[0].cellularNic.nrPhy averageCqiD2D:mean -nan
attr recordingmode mean
attr source averageCqiD2D
attr title "Average Cqi reported in D2D, mean"
attr unit cqi
scalar Highway5G.car[0].cellularNic.nrPhy averageCqiUl:mean 13.277496839444
attr recordingmode mean
attr source averageCqiUl
attr title "Average Cqi reported in UL, mean"
attr unit cqi
scalar Highway5G.car[0].cellularNic.nrPhy averageCqiUl:count 1582
attr recordingmode count
attr source averageCqiUl
attr title "Average Cqi reported in UL, count"
attr unit cqi
scalar Highway5G.car[0].cellularNic.nrPhy averageCqiDl:mean -nan
attr recordingmode mean
attr source averageCqiDl
attr title "Average Cqi reported in DL, mean"
attr unit cqi
scalar Highway5G.car[0].cellularNic.nrPhy averageCqiDl:count 0
attr recordingmode count
attr source averageCqiDl
attr title "Average Cqi reported in DL, count"
attr unit cqi
par Highway5G.car[0].cellularNic.nrChannelModel[0] typename "\"simu5g.stack.phy.ChannelModel.NRChannelModel_3GPP38_901\""
par Highway5G.car[0].cellularNic.nrChannelModel[0] componentCarrierIndex 0
par Highway5G.car[0].cellularNic.nrChannelModel[0] shadowing true
par Highway5G.car[0].cellularNic.nrChannelModel[0] scenario "\"URBAN_MACROCELL\""
par Highway5G.car[0].cellularNic.nrChannelModel[0] nodeb_height 25
par Highway5G.car[0].cellularNic.nrChannelModel[0] building_height 20
par Highway5G.car[0].cellularNic.nrChannelModel[0] inside_building false
par Highway5G.car[0].cellularNic.nrChannelModel[0] street_wide 20
par Highway5G.car[0].cellularNic.nrChannelModel[0] ue_height 1.5
par Highway5G.car[0].cellularNic.nrChannelModel[0] tolerateMaxDistViolation false
par Highway5G.car[0].cellularNic.nrChannelModel[0] useTorus false
par Highway5G.car[0].cellularNic.nrChannelModel[0] correlation_distance 50
par Highway5G.car[0].cellularNic.nrChannelModel[0] targetBler 0.01
par Highway5G.car[0].cellularNic.nrChannelModel[0] harqReduction 0.2
par Highway5G.car[0].cellularNic.nrChannelModel[0] lambdaMinTh 0.02
par Highway5G.car[0].cellularNic.nrChannelModel[0] lambdaMaxTh 0.2
par Highway5G.car[0].cellularNic.nrChannelModel[0] lambdaRatioTh 20
par Highway5G.car[0].cellularNic.nrChannelModel[0] antennaGainUe 0
par Highway5G.car[0].cellularNic.nrChannelModel[0] antennGainEnB 18
par Highway5G.car[0].cellularNic.nrChannelModel[0] antennGainMicro 5
par Highway5G.car[0].cellularNic.nrChannelModel[0] thermalNoise -104.5
par Highway5G.car[0].cellularNic.nrChannelModel[0] ue_noise_figure 7
par Highway5G.car[0].cellularNic.nrChannelModel[0] bs_noise_figure 5
par Highway5G.car[0].cellularNic.nrChannelModel[0] cable_loss 2
par Highway5G.car[0].cellularNic.nrChannelModel[0] dynamic_los false
par Highway5G.car[0].cellularNic.nrChannelModel[0] fixed_los false
par Highway5G.car[0].cellularNic.nrChannelModel[0] fading true
par Highway5G.car[0].cellularNic.nrChannelModel[0] fading_type "\"JAKES\""
par Highway5G.car[0].cellularNic.nrChannelModel[0] fading_paths 6
par Highway5G.car[0].cellularNic.nrChannelModel[0] delay_rms 3.63e-07
par Highway5G.car[0].cellularNic.nrChannelModel[0] bgCell_interference true
par Highway5G.car[0].cellularNic.nrChannelModel[0] extCell_interference true
par Highway5G.car[0].cellularNic.nrChannelModel[0] downlink_interference false
par Highway5G.car[0].cellularNic.nrChannelModel[0] uplink_interference false
par Highway5G.car[0].cellularNic.nrChannelModel[0] d2d_interference true
par Highway5G.car[0].cellularNic.nrChannelModel[0] enable_extCell_los true
par Highway5G.car[0].cellularNic.nrChannelModel[0] useRsrqFromLog false
par Highway5G.car[0].cellularNic.nrChannelModel[0] rsrqShift 22
par Highway5G.car[0].cellularNic.nrChannelModel[0] rsrqScale 1
par Highway5G.car[0].cellularNic.nrChannelModel[0] collectSinrStatistics true
par Highway5G.car[0].cellularNic.nrChannelModel[0] useBuildingPenetrationLossHighLossModel false
scalar Highway5G.car[0].cellularNic.nrChannelModel[0] distance:mean 531.42304532984
attr recordingmode mean
attr source distance
attr title "distance between UE and serving base station, mean"
attr unit meters
scalar Highway5G.car[0].cellularNic.nrChannelModel[0] measuredSinrUl:mean 35.988210739379
attr recordingmode mean
attr source measuredSinrUl
attr title "SINR measured at feedback computation, UL, mean"
attr unit dB
scalar Highway5G.car[0].cellularNic.nrChannelModel[0] measuredSinrDl:mean 52.687314555915
attr recordingmode mean
attr source measuredSinrDl
attr title "SINR measured at feedback computation, DL, mean"
attr unit dB
scalar Highway5G.car[0].cellularNic.nrChannelModel[0] rcvdSinrUl:mean 36.420192546812
attr recordingmode mean
attr source rcvdSinrUl
attr title "SINR measured at packet reception, UL, mean"
attr unit dB
scalar Highway5G.car[0].cellularNic.nrChannelModel[0] rcvdSinrDl:mean -nan
attr recordingmode mean
attr source rcvdSinrDl
attr title "SINR measured at packet reception, DL, mean"
attr unit dB
par Highway5G.car[0].cellularNic.nrDlFbGen typename "\"simu5g.stack.phy.feedback.LteDlFeedbackGenerator\""
par Highway5G.car[0].cellularNic.nrDlFbGen feedbackType "\"ALLBANDS\""
par Highway5G.car[0].cellularNic.nrDlFbGen rbAllocationType "\"localized\""
par Highway5G.car[0].cellularNic.nrDlFbGen fbPeriod 6
par Highway5G.car[0].cellularNic.nrDlFbGen fbDelay 1
par Highway5G.car[0].cellularNic.nrDlFbGen usePeriodic true
par Highway5G.car[0].cellularNic.nrDlFbGen initialTxMode "\"SINGLE_ANTENNA_PORT0\""
par Highway5G.car[0].cellularNic.nrDlFbGen feedbackGeneratorType "\"IDEAL\""
par Highway5G.car[0].cellularNic typename "\"simu5g.stack.NRNicUe\""
par Highway5G.car[0].cellularNic displayStringTextFormat "\"%a (%i)\\n%m\""
par Highway5G.car[0].cellularNic recordPcap false
par Highway5G.car[0].cellularNic numPcapRecorders 0
par Highway5G.car[0].cellularNic isWireless true
par Highway5G.car[0].cellularNic interfaceTableModule "\"Highway5G.car[0].interfaceTable\""
par Highway5G.car[0].cellularNic routingTableModule "\"Highway5G.car[0].ipv4.routingTable\""
par Highway5G.car[0].cellularNic LtePdcpRrcType "\"NRPdcpRrcUe\""
par Highway5G.car[0].cellularNic LteMacType "\"LteMacUeD2D\""
par Highway5G.car[0].cellularNic PacketFlowManagerType "\"PacketFlowManagerUe\""
par Highway5G.car[0].cellularNic hasRNISupport false
par Highway5G.car[0].cellularNic LtePhyType "\"NRPhyUe\""
par Highway5G.car[0].cellularNic nodeType "\"UE\""
par Highway5G.car[0].cellularNic processingDelayIn 0s
attr unit s
par Highway5G.car[0].cellularNic processingDelayOut 0s
attr unit s
par Highway5G.car[0].cellularNic LteChannelModelType "\"LteRealisticChannelModel\""
par Highway5G.car[0].cellularNic d2dCapable true
par Highway5G.car[0].cellularNic dualConnectivityEnabled false
par Highway5G.car[0].cellularNic numCarriers 1
par Highway5G.car[0].cellularNic address "\"0A-AA-00-00-00-05\""
attr mutable ""
par Highway5G.car[0].cellularNic d2dInitialMode false
par Highway5G.car[0].cellularNic NRMacType "\"NRMacUe\""
par Highway5G.car[0].cellularNic NRPhyType "\"NRPhyUe\""
par Highway5G.car[0].cellularNic NRChannelModelType "\"NRChannelModel_3GPP38_901\""
par Highway5G.car[0].cellularNic NRPacketFlowManagerType "\"NRPacketFlowManagerUe\""
par Highway5G.car[0].cellularNic numNRCarriers 1
scalar Highway5G.car[0].cellularNic packetDropInterfaceDown:count 0
attr interpolationmode none
attr recordingmode count
attr source packetDropReasonIsInterfaceDown(packetDropped)
attr title "packet drops: interface down, count"
scalar Highway5G.car[0].cellularNic packetDropInterfaceDown:sum(packetBytes) 0
attr interpolationmode none
attr recordingmode sum(packetBytes)
attr source packetDropReasonIsInterfaceDown(packetDropped)
attr title "packet drops: interface down, sum(packetBytes)"
scalar Highway5G.car[0].cellularNic packetDropNoCarrier:count 0
attr interpolationmode none
attr recordingmode count
attr source packetDropReasonIsNoCarrier(packetDropped)
attr title "packet drops: no carrier, count"
scalar Highway5G.car[0].cellularNic packetDropNoCarrier:sum(packetBytes) 0
attr interpolationmode none
attr recordingmode sum(packetBytes)
attr source packetDropReasonIsNoCarrier(packetDropped)
attr title "packet drops: no carrier, sum(packetBytes)"
par Highway5G.car[0].encap typename "\"inet.linklayer.ethernet.basic.EthernetEncapsulation\""
par Highway5G.car[0].encap registerProtocol true
par Highway5G.car[0].encap interfaceTableModule "\"Highway5G.car[0].interfaceTable\""
par Highway5G.car[0].encap fcsMode "\"declared\""
attr enum declared,computed
par Highway5G.car[0].encap stopOperationExtraTime -1s
attr unit s
par Highway5G.car[0].encap stopOperationTimeout 2s
attr unit s
scalar Highway5G.car[0].encap pauseSent:count 0
attr recordingmode count
attr title "pause sent, count"
scalar Highway5G.car[0].encap pauseSent:sum 0
attr recordingmode sum
attr title "pause sent, sum"
scalar Highway5G.car[0].encap decapPk:count 0
attr interpolationmode none
attr recordingmode count
attr source decapPk
attr title "packets decapsulated, count"
scalar Highway5G.car[0].encap decapPk:sum(packetBytes) 0
attr interpolationmode none
attr recordingmode sum(packetBytes)
attr source decapPk
attr title "packets decapsulated, sum(packetBytes)"
scalar Highway5G.car[0].encap encapPk:count 0
attr interpolationmode none
attr recordingmode count
attr source encapPk
attr title "packets encapsulated, count"
scalar Highway5G.car[0].encap encapPk:sum(packetBytes) 0
attr interpolationmode none
attr recordingmode sum(packetBytes)
attr source encapPk
attr title "packets encapsulated, sum(packetBytes)"
par Highway5G.car[0].ipv4.transportIn.channel typename "\"ned.IdealChannel\""
par Highway5G.car[0].ipv4.up.out[0].channel typename "\"ned.IdealChannel\""
par Highway5G.car[0].ipv4.lp.out[2].channel typename "\"ned.IdealChannel\""
par Highway5G.car[0].ipv4.ifIn.channel typename "\"ned.IdealChannel\""
par Highway5G.car[0].ipv4.configurator typename "\"inet.networklayer.configurator.ipv4.HostAutoConfigurator\""
par Highway5G.car[0].ipv4.configurator interfaceTableModule "\"Highway5G.car[0].interfaceTable\""
par Highway5G.car[0].ipv4.configurator interfaces "\"cellular lo0\""
par Highway5G.car[0].ipv4.configurator addressBase "\"10.0.0.0\""
par Highway5G.car[0].ipv4.configurator netmask "\"255.0.0.0\""
par Highway5G.car[0].ipv4.configurator mcastGroups "\"\""
par Highway5G.car[0].ipv4.routingTable typename "\"inet.networklayer.ipv4.Ipv4RoutingTable\""
par Highway5G.car[0].ipv4.routingTable interfaceTableModule "\"Highway5G.car[0].interfaceTable\""
par Highway5G.car[0].ipv4.routingTable routerId "\"auto\""
par Highway5G.car[0].ipv4.routingTable netmaskRoutes "\"*\""
par Highway5G.car[0].ipv4.routingTable forwarding false
par Highway5G.car[0].ipv4.routingTable multicastForwarding false
par Highway5G.car[0].ipv4.routingTable useAdminDist false
par Highway5G.car[0].ipv4.routingTable routingFile "\"\""
par Highway5G.car[0].ipv4.natTable typename "\"inet.networklayer.ipv4.Ipv4NatTable\""
par Highway5G.car[0].ipv4.natTable networkProtocolModule "\"^.ip\""
par Highway5G.car[0].ipv4.natTable config "<config/> at content:1"
par Highway5G.car[0].ipv4.up typename "\"inet.common.MessageDispatcher\""
par Highway5G.car[0].ipv4.up displayStringTextFormat "\"processed %p pk (%l)\""
par Highway5G.car[0].ipv4.up forwardServiceRegistration true
par Highway5G.car[0].ipv4.up forwardProtocolRegistration true
par Highway5G.car[0].ipv4.igmp typename "\"inet.networklayer.ipv4.Igmpv2\""
par Highway5G.car[0].ipv4.igmp interfaceTableModule "\"Highway5G.car[0].interfaceTable\""
par Highway5G.car[0].ipv4.igmp routingTableModule "\"Highway5G.car[0].ipv4.routingTable\""
par Highway5G.car[0].ipv4.igmp crcMode "\"declared\""
attr enum declared,computed
par Highway5G.car[0].ipv4.igmp enabled true
par Highway5G.car[0].ipv4.igmp robustnessVariable 2
par Highway5G.car[0].ipv4.igmp queryInterval 125s
attr unit s
par Highway5G.car[0].ipv4.igmp queryResponseInterval 10s
attr unit s
par Highway5G.car[0].ipv4.igmp groupMembershipInterval 260s
attr unit s
par Highway5G.car[0].ipv4.igmp otherQuerierPresentInterval 255s
attr unit s
par Highway5G.car[0].ipv4.igmp startupQueryInterval 31.25s
attr unit s
par Highway5G.car[0].ipv4.igmp startupQueryCount 2
par Highway5G.car[0].ipv4.igmp lastMemberQueryInterval 1s
attr unit s
par Highway5G.car[0].ipv4.igmp lastMemberQueryCount 2
par Highway5G.car[0].ipv4.igmp unsolicitedReportInterval 10s
attr unit s
par Highway5G.car[0].ipv4.icmp typename "\"inet.networklayer.ipv4.Icmp\""
par Highway5G.car[0].ipv4.icmp interfaceTableModule "\"Highway5G.car[0].interfaceTable\""
par Highway5G.car[0].ipv4.icmp routingTableModule "\"Highway5G.car[0].ipv4.routingTable\""
par Highway5G.car[0].ipv4.icmp crcMode "\"declared\""
attr enum declared,computed
attr mutable ""
par Highway5G.car[0].ipv4.icmp quoteLength 8B
attr mutable ""
attr unit B
par Highway5G.car[0].ipv4.mp typename "\"inet.common.MessageDispatcher\""
par Highway5G.car[0].ipv4.mp displayStringTextFormat "\"processed %p pk (%l)\""
par Highway5G.car[0].ipv4.mp forwardServiceRegistration true
par Highway5G.car[0].ipv4.mp forwardProtocolRegistration true
par Highway5G.car[0].ipv4.ip typename "\"inet.networklayer.ipv4.Ipv4\""
par Highway5G.car[0].ipv4.ip interfaceTableModule "\"Highway5G.car[0].interfaceTable\""
par Highway5G.car[0].ipv4.ip routingTableModule "\"Highway5G.car[0].ipv4.routingTable\""
par Highway5G.car[0].ipv4.ip arpModule "\"Highway5G.car[0].ipv4.arp\""
par Highway5G.car[0].ipv4.ip icmpModule "\"Highway5G.car[0].ipv4.icmp\""
par Highway5G.car[0].ipv4.ip crcMode "\"declared\""
attr enum declared,computed
par Highway5G.car[0].ipv4.ip timeToLive 32
par Highway5G.car[0].ipv4.ip multicastTimeToLive 32
par Highway5G.car[0].ipv4.ip fragmentTimeout 60s
attr unit s
par Highway5G.car[0].ipv4.ip limitedBroadcast false
par Highway5G.car[0].ipv4.ip directBroadcastInterfaces "\"\""
scalar Highway5G.car[0].ipv4.ip packetDropAddressResolutionFailed:count 0
attr interpolationmode none
attr recordingmode count
attr source packetDropReasonIsAddressResolutionFailed(packetDropped)
attr title "packet drop: address resolution failed, count"
scalar Highway5G.car[0].ipv4.ip packetDropAddressResolutionFailed:sum(packetBytes) 0
attr interpolationmode none
attr recordingmode sum(packetBytes)
attr source packetDropReasonIsAddressResolutionFailed(packetDropped)
attr title "packet drop: address resolution failed, sum(packetBytes)"
scalar Highway5G.car[0].ipv4.ip packetDropHopLimitReached:count 0
attr interpolationmode none
attr recordingmode count
attr source packetDropReasonIsHopLimitReached(packetDropped)
attr title "packet drop: hop limit reached, count"
scalar Highway5G.car[0].ipv4.ip packetDropHopLimitReached:sum(packetBytes) 0
attr interpolationmode none
attr recordingmode sum(packetBytes)
attr source packetDropReasonIsHopLimitReached(packetDropped)
attr title "packet drop: hop limit reached, sum(packetBytes)"
scalar Highway5G.car[0].ipv4.ip packetDropForwardingDisabled:count 0
attr interpolationmode none
attr recordingmode count
attr source packetDropReasonIsForwardingDisabled(packetDropped)
attr title "packet drop: forwarding disabled, count"
scalar Highway5G.car[0].ipv4.ip packetDropForwardingDisabled:sum(packetBytes) 0
attr interpolationmode none
attr recordingmode sum(packetBytes)
attr source packetDropReasonIsForwardingDisabled(packetDropped)
attr title "packet drop: forwarding disabled, sum(packetBytes)"
[...]
attr unit dB
scalar Highway5G.car[7].cellularNic.nrChannelModel[0] measuredSinrDl:mean 54.317460381962
attr recordingmode mean
attr source measuredSinrDl
attr title "SINR measured at feedback computation, DL, mean"
attr unit dB
scalar Highway5G.car[7].cellularNic.nrChannelModel[0] rcvdSinrUl:mean 30.353254220532
attr recordingmode mean
attr source rcvdSinrUl
attr title "SINR measured at packet reception, UL, mean"
attr unit dB
scalar Highway5G.car[7].cellularNic.nrChannelModel[0] rcvdSinrDl:mean -nan
attr recordingmode mean
attr source rcvdSinrDl
attr title "SINR measured at packet reception, DL, mean"
attr unit dB
par Highway5G.car[7].cellularNic.nrDlFbGen typename "\"simu5g.stack.phy.feedback.LteDlFeedbackGenerator\""
par Highway5G.car[7].cellularNic.nrDlFbGen feedbackType "\"ALLBANDS\""
par Highway5G.car[7].cellularNic.nrDlFbGen rbAllocationType "\"localized\""
par Highway5G.car[7].cellularNic.nrDlFbGen fbPeriod 6
par Highway5G.car[7].cellularNic.nrDlFbGen fbDelay 1
par Highway5G.car[7].cellularNic.nrDlFbGen usePeriodic true
par Highway5G.car[7].cellularNic.nrDlFbGen initialTxMode "\"SINGLE_ANTENNA_PORT0\""
par Highway5G.car[7].cellularNic.nrDlFbGen feedbackGeneratorType "\"IDEAL\""
par Highway5G.car[7].cellularNic typename "\"simu5g.stack.NRNicUe\""
par Highway5G.car[7].cellularNic displayStringTextFormat "\"%a (%i)\\n%m\""
par Highway5G.car[7].cellularNic recordPcap false
par Highway5G.car[7].cellularNic numPcapRecorders 0
par Highway5G.car[7].cellularNic isWireless true
par Highway5G.car[7].cellularNic interfaceTableModule "\"Highway5G.car[7].interfaceTable\""
par Highway5G.car[7].cellularNic routingTableModule "\"Highway5G.car[7].ipv4.routingTable\""
par Highway5G.car[7].cellularNic LtePdcpRrcType "\"NRPdcpRrcUe\""
par Highway5G.car[7].cellularNic LteMacType "\"LteMacUeD2D\""
par Highway5G.car[7].cellularNic PacketFlowManagerType "\"PacketFlowManagerUe\""
par Highway5G.car[7].cellularNic hasRNISupport false
par Highway5G.car[7].cellularNic LtePhyType "\"NRPhyUe\""
par Highway5G.car[7].cellularNic nodeType "\"UE\""
par Highway5G.car[7].cellularNic processingDelayIn 0s
attr unit s
par Highway5G.car[7].cellularNic processingDelayOut 0s
attr unit s
par Highway5G.car[7].cellularNic LteChannelModelType "\"LteRealisticChannelModel\""
par Highway5G.car[7].cellularNic d2dCapable true
par Highway5G.car[7].cellularNic dualConnectivityEnabled false
par Highway5G.car[7].cellularNic numCarriers 1
par Highway5G.car[7].cellularNic address "\"0A-AA-00-00-00-0C\""
attr mutable ""
par Highway5G.car[7].cellularNic d2dInitialMode false
par Highway5G.car[7].cellularNic NRMacType "\"NRMacUe\""
par Highway5G.car[7].cellularNic NRPhyType "\"NRPhyUe\""
par Highway5G.car[7].cellularNic NRChannelModelType "\"NRChannelModel_3GPP38_901\""
par Highway5G.car[7].cellularNic NRPacketFlowManagerType "\"NRPacketFlowManagerUe\""
par Highway5G.car[7].cellularNic numNRCarriers 1
scalar Highway5G.car[7].cellularNic packetDropInterfaceDown:count 0
attr interpolationmode none
attr recordingmode count
attr source packetDropReasonIsInterfaceDown(packetDropped)
attr title "packet drops: interface down, count"
scalar Highway5G.car[7].cellularNic packetDropInterfaceDown:sum(packetBytes) 0
attr interpolationmode none
attr recordingmode sum(packetBytes)
attr source packetDropReasonIsInterfaceDown(packetDropped)
attr title "packet drops: interface down, sum(packetBytes)"
scalar Highway5G.car[7].cellularNic packetDropNoCarrier:count 0
attr interpolationmode none
attr recordingmode count
attr source packetDropReasonIsNoCarrier(packetDropped)
attr title "packet drops: no carrier, count"
scalar Highway5G.car[7].cellularNic packetDropNoCarrier:sum(packetBytes) 0
attr interpolationmode none
attr recordingmode sum(packetBytes)
attr source packetDropReasonIsNoCarrier(packetDropped)
attr title "packet drops: no carrier, sum(packetBytes)"
par Highway5G.car[7].encap typename "\"inet.linklayer.ethernet.basic.EthernetEncapsulation\""
par Highway5G.car[7].encap registerProtocol true
par Highway5G.car[7].encap interfaceTableModule "\"Highway5G.car[7].interfaceTable\""
par Highway5G.car[7].encap fcsMode "\"declared\""
attr enum declared,computed
par Highway5G.car[7].encap stopOperationExtraTime -1s
attr unit s
par Highway5G.car[7].encap stopOperationTimeout 2s
attr unit s
scalar Highway5G.car[7].encap pauseSent:count 0
attr recordingmode count
attr title "pause sent, count"
scalar Highway5G.car[7].encap pauseSent:sum 0
attr recordingmode sum
attr title "pause sent, sum"
scalar Highway5G.car[7].encap decapPk:count 0
attr interpolationmode none
attr recordingmode count
attr source decapPk
attr title "packets decapsulated, count"
scalar Highway5G.car[7].encap decapPk:sum(packetBytes) 0
attr interpolationmode none
attr recordingmode sum(packetBytes)
attr source decapPk
attr title "packets decapsulated, sum(packetBytes)"
scalar Highway5G.car[7].encap encapPk:count 0
attr interpolationmode none
attr recordingmode count
attr source encapPk
attr title "packets encapsulated, count"
scalar Highway5G.car[7].encap encapPk:sum(packetBytes) 0
attr interpolationmode none
attr recordingmode sum(packetBytes)
attr source encapPk
attr title "packets encapsulated, sum(packetBytes)"
par Highway5G.car[7].ipv4.transportIn.channel typename "\"ned.IdealChannel\""
par Highway5G.car[7].ipv4.up.out[0].channel typename "\"ned.IdealChannel\""
par Highway5G.car[7].ipv4.lp.out[2].channel typename "\"ned.IdealChannel\""
par Highway5G.car[7].ipv4.ifIn.channel typename "\"ned.IdealChannel\""
par Highway5G.car[7].ipv4.configurator typename "\"inet.networklayer.configurator.ipv4.HostAutoConfigurator\""
par Highway5G.car[7].ipv4.configurator interfaceTableModule "\"Highway5G.car[7].interfaceTable\""
par Highway5G.car[7].ipv4.configurator interfaces "\"cellular lo0\""
par Highway5G.car[7].ipv4.configurator addressBase "\"10.0.0.0\""
par Highway5G.car[7].ipv4.configurator netmask "\"255.0.0.0\""
par Highway5G.car[7].ipv4.configurator mcastGroups "\"\""
par Highway5G.car[7].ipv4.routingTable typename "\"inet.networklayer.ipv4.Ipv4RoutingTable\""
par Highway5G.car[7].ipv4.routingTable interfaceTableModule "\"Highway5G.car[7].interfaceTable\""
par Highway5G.car[7].ipv4.routingTable routerId "\"auto\""
par Highway5G.car[7].ipv4.routingTable netmaskRoutes "\"*\""
par Highway5G.car[7].ipv4.routingTable forwarding false
par Highway5G.car[7].ipv4.routingTable multicastForwarding false
par Highway5G.car[7].ipv4.routingTable useAdminDist false
par Highway5G.car[7].ipv4.routingTable routingFile "\"\""
par Highway5G.car[7].ipv4.natTable typename "\"inet.networklayer.ipv4.Ipv4NatTable\""
par Highway5G.car[7].ipv4.natTable networkProtocolModule "\"^.ip\""
par Highway5G.car[7].ipv4.natTable config "<config/> at content:1"
par Highway5G.car[7].ipv4.up typename "\"inet.common.MessageDispatcher\""
par Highway5G.car[7].ipv4.up displayStringTextFormat "\"processed %p pk (%l)\""
par Highway5G.car[7].ipv4.up forwardServiceRegistration true
par Highway5G.car[7].ipv4.up forwardProtocolRegistration true
par Highway5G.car[7].ipv4.igmp typename "\"inet.networklayer.ipv4.Igmpv2\""
par Highway5G.car[7].ipv4.igmp interfaceTableModule "\"Highway5G.car[7].interfaceTable\""
par Highway5G.car[7].ipv4.igmp routingTableModule "\"Highway5G.car[7].ipv4.routingTable\""
par Highway5G.car[7].ipv4.igmp crcMode "\"declared\""
attr enum declared,computed
par Highway5G.car[7].ipv4.igmp enabled true
par Highway5G.car[7].ipv4.igmp robustnessVariable 2
par Highway5G.car[7].ipv4.igmp queryInterval 125s
attr unit s
par Highway5G.car[7].ipv4.igmp queryResponseInterval 10s
attr unit s
par Highway5G.car[7].ipv4.igmp groupMembershipInterval 260s
attr unit s
par Highway5G.car[7].ipv4.igmp otherQuerierPresentInterval 255s
attr unit s
par Highway5G.car[7].ipv4.igmp startupQueryInterval 31.25s
attr unit s
par Highway5G.car[7].ipv4.igmp startupQueryCount 2
par Highway5G.car[7].ipv4.igmp lastMemberQueryInterval 1s
attr unit s
par Highway5G.car[7].ipv4.igmp lastMemberQueryCount 2
par Highway5G.car[7].ipv4.igmp unsolicitedReportInterval 10s
attr unit s
par Highway5G.car[7].ipv4.icmp typename "\"inet.networklayer.ipv4.Icmp\""
par Highway5G.car[7].ipv4.icmp interfaceTableModule "\"Highway5G.car[7].interfaceTable\""
par Highway5G.car[7].ipv4.icmp routingTableModule "\"Highway5G.car[7].ipv4.routingTable\""
par Highway5G.car[7].ipv4.icmp crcMode "\"declared\""
attr enum declared,computed
attr mutable ""
par Highway5G.car[7].ipv4.icmp quoteLength 8B
attr mutable ""
attr unit B
par Highway5G.car[7].ipv4.mp typename "\"inet.common.MessageDispatcher\""
par Highway5G.car[7].ipv4.mp displayStringTextFormat "\"processed %p pk (%l)\""
par Highway5G.car[7].ipv4.mp forwardServiceRegistration true
par Highway5G.car[7].ipv4.mp forwardProtocolRegistration true
par Highway5G.car[7].ipv4.ip typename "\"inet.networklayer.ipv4.Ipv4\""
par Highway5G.car[7].ipv4.ip interfaceTableModule "\"Highway5G.car[7].interfaceTable\""
par Highway5G.car[7].ipv4.ip routingTableModule "\"Highway5G.car[7].ipv4.routingTable\""
par Highway5G.car[7].ipv4.ip arpModule "\"Highway5G.car[7].ipv4.arp\""
par Highway5G.car[7].ipv4.ip icmpModule "\"Highway5G.car[7].ipv4.icmp\""
par Highway5G.car[7].ipv4.ip crcMode "\"declared\""
attr enum declared,computed
par Highway5G.car[7].ipv4.ip timeToLive 32
par Highway5G.car[7].ipv4.ip multicastTimeToLive 32
par Highway5G.car[7].ipv4.ip fragmentTimeout 60s
attr unit s
par Highway5G.car[7].ipv4.ip limitedBroadcast false
par Highway5G.car[7].ipv4.ip directBroadcastInterfaces "\"\""
scalar Highway5G.car[7].ipv4.ip packetDropAddressResolutionFailed:count 0
attr interpolationmode none
attr recordingmode count
attr source packetDropReasonIsAddressResolutionFailed(packetDropped)
attr title "packet drop: address resolution failed, count"
scalar Highway5G.car[7].ipv4.ip packetDropAddressResolutionFailed:sum(packetBytes) 0
attr interpolationmode none
attr recordingmode sum(packetBytes)
attr source packetDropReasonIsAddressResolutionFailed(packetDropped)
attr title "packet drop: address resolution failed, sum(packetBytes)"
scalar Highway5G.car[7].ipv4.ip packetDropHopLimitReached:count 0
attr interpolationmode none
attr recordingmode count
attr source packetDropReasonIsHopLimitReached(packetDropped)
attr title "packet drop: hop limit reached, count"
scalar Highway5G.car[7].ipv4.ip packetDropHopLimitReached:sum(packetBytes) 0
attr interpolationmode none
attr recordingmode sum(packetBytes)
attr source packetDropReasonIsHopLimitReached(packetDropped)
attr title "packet drop: hop limit reached, sum(packetBytes)"
scalar Highway5G.car[7].ipv4.ip packetDropForwardingDisabled:count 0
attr interpolationmode none
attr recordingmode count
attr source packetDropReasonIsForwardingDisabled(packetDropped)
attr title "packet drop: forwarding disabled, count"
scalar Highway5G.car[7].ipv4.ip packetDropForwardingDisabled:sum(packetBytes) 0
attr interpolationmode none
attr recordingmode sum(packetBytes)
attr source packetDropReasonIsForwardingDisabled(packetDropped)
attr title "packet drop: forwarding disabled, sum(packetBytes)"
scalar Highway5G.car[7].ipv4.ip packetDropNoInterfaceFound:count 0
attr interpolationmode none
attr recordingmode count
attr source packetDropReasonIsNoInterfaceFound(packetDropped)
attr title "packet drop: no interface found, count"
scalar Highway5G.car[7].ipv4.ip packetDropNoInterfaceFound:sum(packetBytes) 0
attr interpolationmode none
attr recordingmode sum(packetBytes)
attr source packetDropReasonIsNoInterfaceFound(packetDropped)
attr title "packet drop: no interface found, sum(packetBytes)"
scalar Highway5G.car[7].ipv4.ip packetDropNoRouteFound:count 0
attr interpolationmode none
attr recordingmode count
attr source packetDropReasonIsNoRouteFound(packetDropped)
attr title "packet drop: no route found, count"
scalar Highway5G.car[7].ipv4.ip packetDropNoRouteFound:sum(packetBytes) 0
attr interpolationmode none
attr recordingmode sum(packetBytes)
attr source packetDropReasonIsNoRouteFound(packetDropped)
attr title "packet drop: no route found, sum(packetBytes)"
scalar Highway5G.car[7].ipv4.ip packetDropUndefined:count 0
attr interpolationmode none
attr recordingmode count
attr source packetDropReasonIsUndefined(packetDropped)
attr title "packet drop: undefined, count"
scalar Highway5G.car[7].ipv4.ip packetDropUndefined:sum(packetBytes) 0
attr interpolationmode none
attr recordingmode sum(packetBytes)
attr source packetDropReasonIsUndefined(packetDropped)
attr title "packet drop: undefined, sum(packetBytes)"
par Highway5G.car[7].ipv4.arp typename "\"inet.networklayer.arp.ipv4.Arp\""
par Highway5G.car[7].ipv4.arp interfaceTableModule "\"Highway5G.car[7].interfaceTable\""
par Highway5G.car[7].ipv4.arp routingTableModule "\"Highway5G.car[7].ipv4.routingTable\""
par Highway5G.car[7].ipv4.arp retryTimeout 1s
attr unit s
par Highway5G.car[7].ipv4.arp retryCount 3
par Highway5G.car[7].ipv4.arp cacheTimeout 120s
attr unit s
par Highway5G.car[7].ipv4.arp proxyArpInterfaces "\"*\""
scalar Highway5G.car[7].ipv4.arp arpResolutionFailed:count 0
attr recordingmode count
attr title "ARP failed resolutions, count"
scalar Highway5G.car[7].ipv4.arp arpResolutionCompleted:count 0
attr recordingmode count
attr title "ARP completed resolutions, count"
scalar Highway5G.car[7].ipv4.arp arpResolutionInitiated:count 0
attr recordingmode count
attr title "ARP initiated resolutions, count"
scalar Highway5G.car[7].ipv4.arp arpReplySent:count 0
attr recordingmode count
attr source arpReplySent
attr title "ARP replies sent, count"
scalar Highway5G.car[7].ipv4.arp arpReplySent:sum(packetBytes) 0
attr recordingmode sum(packetBytes)
attr source arpReplySent
attr title "ARP replies sent, sum(packetBytes)"
scalar Highway5G.car[7].ipv4.arp arpRequestSent:count 0
attr recordingmode count
attr source arpRequestSent
attr title "ARP request sent, count"
scalar Highway5G.car[7].ipv4.arp arpRequestSent:sum(packetBytes) 0
attr recordingmode sum(packetBytes)
attr source arpRequestSent
attr title "ARP request sent, sum(packetBytes)"
par Highway5G.car[7].ipv4.lp typename "\"inet.common.MessageDispatcher\""
par Highway5G.car[7].ipv4.lp displayStringTextFormat "\"processed %p pk (%l)\""
par Highway5G.car[7].ipv4.lp forwardServiceRegistration true
par Highway5G.car[7].ipv4.lp forwardProtocolRegistration true
par Highway5G.car[7].ipv4 typename "\"inet.networklayer.ipv4.Ipv4NetworkLayer\""
par Highway5G.car[7].ipv4 forwarding false
par Highway5G.car[7].ipv4 multicastForwarding false
par Highway5G.car[7].ipv4 interfaceTableModule "\"Highway5G.car[7].interfaceTable\""
par Highway5G.car[7].ipv4 displayStringTextFormat "\"%i\""
par Highway5G.car[7].udp typename "\"inet.transportlayer.udp.Udp\""
par Highway5G.car[7].udp interfaceTableModule "\"Highway5G.car[7].interfaceTable\""
par Highway5G.car[7].udp icmpModule "\"^.ipv4.icmp\""
par Highway5G.car[7].udp icmpv6Module "\"^.ipv6.icmpv6\""
par Highway5G.car[7].udp crcMode "\"declared\""
attr enum disabled,declared,computed
par Highway5G.car[7].udp defaultMulticastLoop true
scalar Highway5G.car[7].udp packetReceived:count 0
attr interpolationmode none
attr recordingmode count
attr source packetReceived
attr title "packets received, count"
scalar Highway5G.car[7].udp packetReceived:sum(packetBytes) 0
attr interpolationmode none
attr recordingmode sum(packetBytes)
attr source packetReceived
attr title "packets received, sum(packetBytes)"
scalar Highway5G.car[7].udp packetSent:count 2344
attr interpolationmode none
attr recordingmode count
attr source packetSent
attr title "packets sent, count"
scalar Highway5G.car[7].udp packetSent:sum(packetBytes) 112512
attr interpolationmode none
attr recordingmode sum(packetBytes)
attr source packetSent
attr title "packets sent, sum(packetBytes)"
scalar Highway5G.car[7].udp passedUpPk:count 0
attr interpolationmode none
attr recordingmode count
attr source packetSentToUpper
attr title "packets passed up, count"
scalar Highway5G.car[7].udp droppedPkWrongPort:count 0
attr interpolationmode none
attr recordingmode count
attr source packetDropReasonIsNoPortFound(packetDropped)
attr title "packets dropped (wrong port), count"
scalar Highway5G.car[7].udp droppedPkBadChecksum:count 0
attr interpolationmode none
attr recordingmode count
attr source packetDropReasonIsIncorrectlyReceived(packetDropped)
attr title "packets dropped (checksum error), count"
par Highway5G.car[7].tcp typename "\"inet.transportlayer.tcp.Tcp\""
par Highway5G.car[7].tcp crcMode "\"declared\""
attr enum declared,computed
par Highway5G.car[7].tcp advertisedWindow 7504
par Highway5G.car[7].tcp delayedAcksEnabled false
par Highway5G.car[7].tcp nagleEnabled true
par Highway5G.car[7].tcp limitedTransmitEnabled false
par Highway5G.car[7].tcp increasedIWEnabled false
par Highway5G.car[7].tcp sackSupport false
par Highway5G.car[7].tcp windowScalingSupport false
par Highway5G.car[7].tcp windowScalingFactor -1
par Highway5G.car[7].tcp timestampSupport false
par Highway5G.car[7].tcp mss 536
par Highway5G.car[7].tcp msl 120s
attr unit s
par Highway5G.car[7].tcp tcpAlgorithmClass "\"TcpReno\""
par Highway5G.car[7].tcp useDataNotification false
par Highway5G.car[7].tcp dupthresh 3
par Highway5G.car[7].tcp initialSsthresh 4294967295
par Highway5G.car[7].tcp stopOperationExtraTime 0s
attr unit s
par Highway5G.car[7].tcp stopOperationTimeout 2s
attr unit s
par Highway5G.car[7].tcp ecnWillingness false
par Highway5G.car[7].tcp dctcpGamma 0.0625
par Highway5G.car[7].app[0] typename "\"simu5g.apps.voip.VoIPSender\""
par Highway5G.car[7].app[0] localPort -1
par Highway5G.car[7].app[0] destPort 3007
par Highway5G.car[7].app[0] destAddress "\"server\""
par Highway5G.car[7].app[0] PacketSize 40
par Highway5G.car[7].app[0] shape_talk 0.824
par Highway5G.car[7].app[0] scale_talk 1.423
par Highway5G.car[7].app[0] shape_sil 1.089
par Highway5G.car[7].app[0] scale_sil 0.899
par Highway5G.car[7].app[0] is_talk true
par Highway5G.car[7].app[0] sampling_time 0.02s
attr unit s
par Highway5G.car[7].app[0] startTime 0s
attr unit s
par Highway5G.car[7].app[0] silences true
par Highway5G.car[7].app[0] tos -1
scalar Highway5G.car[7].app[0] voIPGeneratedThroughput:mean 523.94631920711
attr recordingmode mean
attr source voIPGeneratedThroughput
attr title "Throughput generated by the application, mean"
attr unit Bps
par Highway5G.car[7].at typename "\"inet.common.MessageDispatcher\""
par Highway5G.car[7].at displayStringTextFormat "\"processed %p pk (%l)\""
par Highway5G.car[7].at forwardServiceRegistration true
par Highway5G.car[7].at forwardProtocolRegistration true
par Highway5G.car[7].tn typename "\"inet.common.MessageDispatcher\""
par Highway5G.car[7].tn displayStringTextFormat "\"processed %p pk (%l)\""
par Highway5G.car[7].tn forwardServiceRegistration true
par Highway5G.car[7].tn forwardProtocolRegistration true
par Highway5G.car[7].nl typename "\"inet.common.MessageDispatcher\""
par Highway5G.car[7].nl displayStringTextFormat "\"processed %p pk (%l)\""
par Highway5G.car[7].nl forwardServiceRegistration true
par Highway5G.car[7].nl forwardProtocolRegistration true
par Highway5G.car[7] typename "\"simu5g.nodes.cars.NRCar\""
par Highway5G.car[7] numApps 1
par Highway5G.car[7] hasUdp true
par Highway5G.car[7] hasTcp true
par Highway5G.car[7] hasSctp false
par Highway5G.car[7] nodeType "\"UE\""
par Highway5G.car[7] masterId 0
attr mutable ""
par Highway5G.car[7] macNodeId 1032
attr mutable ""
par Highway5G.car[7] macCellId 0
attr mutable ""
par Highway5G.car[7] nicType "\"NRNicUe\""
par Highway5G.car[7] hasIpv4 true
par Highway5G.car[7] hasIpv6 false
par Highway5G.car[7] numEthInterfaces 0
par Highway5G.car[7] extHostAddress "\"\""
par Highway5G.car[7] numLoInterfaces 1
par Highway5G.car[7] numPcapRecorders 0
par Highway5G.car[7] hasRNISupport false
par Highway5G.car[7] nrMasterId 2
attr mutable ""
par Highway5G.car[7] nrMacNodeId 2056
attr mutable ""
par Highway5G.car[7] nrMacCellId 1
attr mutable ""
par Highway5G typename "\"projectpredicthandover.simulations.handover5G.Highway5G\""

